24
Coordinates from ORCA-job Triclosan\Triclosan_B3LYP_6-311+G\Triclosan_B3LYP_6-311+G.orcainp E -1992.227583197646
  C          -0.72186324202746      1.31877931765445      0.34259929017259
  C           0.54956043464618      1.88383311606289      0.42146983176531
  C           1.67445646228695      1.09916789236491      0.20381158186238
  C           1.55641110510692     -0.26853174491602     -0.07289282233434
  C           0.28689365563816     -0.84441520058108     -0.14889748833109
  C          -0.82689374156101     -0.03986344821293      0.05616618113245
  Cl         -2.42961132041700     -0.77342332920423     -0.04636631973986
  O           2.64508052187713     -1.05645316009101     -0.26878525723296
  O           2.96598506374682      1.59779281708212      0.34618967826977
  C           3.43864254981218      2.54875410412551     -0.52888522147757
  C           4.56944766903453      3.27455938249113     -0.13529237510543
  C           5.13610803471074      4.22792979572205     -0.97389263832877
  C           4.55723152481776      4.45251234782723     -2.21839332164566
  C           3.43668512671686      3.74281209914285     -2.63360652898042
  C           2.88202429641532      2.78859810677997     -1.78433231791102
  Cl          5.26545607206834      5.66540886136594     -3.28389114016770
  Cl          5.29017806747334      2.98136331983783      1.43667862855750
  H          -1.60460330166665      1.92235228062890      0.50715025234248
  H           0.66774385772981      2.93683937373232      0.64977371348634
  H           0.19216825856922     -1.90109729793550     -0.36451864975324
  H           3.44891430078618     -0.52952745995188     -0.14445753751729
  H           6.00832286038095      4.78249800434363     -0.65429218192378
  H           2.99805574898037      3.92153510028196     -3.60693060288576
  H           2.01304599487429      2.22749572144893     -2.10423475425392
