24
Coordinates from ORCA-job Triclosan\Triclosan_B3LYP_6-311+G\Triclosan_B3LYP_6-311+G.orcainp E -1992.220811123814
  C      -0.498380      1.456720      0.098960
  C       0.836360      1.861870      0.139870
  C       1.858500      0.909640      0.076920
  C       1.527050     -0.445530      0.103270
  C       0.193990     -0.859110      0.065880
  C      -0.813110      0.098450      0.043280
  Cl     -2.458040     -0.389950     -0.044300
  O       2.486230     -1.418040      0.159240
  O       3.195400      1.239150      0.004080
  C       3.558400      2.365550     -0.713420
  C       4.599240      3.161890     -0.218400
  C       4.975450      4.330570     -0.889960
  C       4.312220      4.697790     -2.056160
  C       3.302130      3.893950     -2.580580
  C       2.944190      2.713370     -1.925990
  Cl      4.745030      6.153320     -2.864750
  Cl      5.438900      2.741890      1.230850
  H      -1.286770      2.204470      0.098980
  H       1.062640      2.922230      0.193350
  H      -0.040810     -1.921090      0.052350
  H       3.329410     -0.977310      0.373690
  H       5.776510      4.951890     -0.496780
  H       2.786880      4.180330     -3.495300
  H       2.168020      2.086870     -2.360910
24
Coordinates from ORCA-job Triclosan\Triclosan_B3LYP_6-311+G\Triclosan_B3LYP_6-311+G.orcainp E -1992.225531936393
  C      -0.582965      1.408101      0.255710
  C       0.734110      1.858505      0.202134
  C       1.781179      0.949803      0.042719
  C       1.507997     -0.421065      0.022688
  C       0.191412     -0.879019      0.072961
  C      -0.847552      0.040771      0.174333
  Cl     -2.496196     -0.521311      0.209500
  O       2.507090     -1.352376     -0.068951
  O       3.116712      1.309874     -0.016133
  C       3.512161      2.427599     -0.726370
  C       4.510999      3.232636     -0.171323
  C       4.974303      4.357644     -0.855033
  C       4.438854      4.670076     -2.099901
  C       3.465993      3.856268     -2.678442
  C       3.015821      2.729341     -1.996767
  Cl      4.996058      6.086697     -2.946916
  Cl      5.198597      2.850450      1.381307
  H      -1.392274      2.120395      0.358450
  H       0.932055      2.919433      0.287519
  H      -0.003391     -1.943630      0.030564
  H       3.357747     -0.904500      0.051005
  H       5.743454      4.979957     -0.415798
  H       3.059125      4.092737     -3.653948
  H       2.278152      2.090532     -2.465139
24
Coordinates from ORCA-job Triclosan\Triclosan_B3LYP_6-311+G\Triclosan_B3LYP_6-311+G.orcainp E -1992.226955271503
  C      -0.611544      1.393602      0.274286
  C       0.695597      1.864153      0.180348
  C       1.749968      0.971068      0.026438
  C       1.509144     -0.406213     -0.015059
  C       0.205024     -0.885821      0.086476
  C      -0.842384      0.019720      0.225330
  Cl     -2.492742     -0.586267      0.334090
  O       2.526680     -1.302220     -0.169630
  O       3.084977      1.339806      0.001963
  C       3.492415      2.449559     -0.704477
  C       4.484297      3.256791     -0.141956
  C       4.988805      4.349996     -0.840957
  C       4.487452      4.632864     -2.106654
  C       3.499735      3.835323     -2.681529
  C       3.008751      2.743378     -1.976285
  Cl      5.110039      6.021701     -2.988373
  Cl      5.117303      2.892999      1.450458
  H      -1.431639      2.088747      0.394481
  H       0.885366      2.929153      0.235511
  H       0.029102     -1.952744      0.049843
  H       3.372440     -0.831889     -0.145515
  H       5.758154      4.967407     -0.398211
  H       3.120705      4.054062     -3.670713
  H       2.251796      2.113746     -2.425697
24
Coordinates from ORCA-job Triclosan\Triclosan_B3LYP_6-311+G\Triclosan_B3LYP_6-311+G.orcainp E -1992.227151980379
  C      -0.619242      1.390332      0.287873
  C       0.687619      1.866385      0.200312
  C       1.742707      0.977784      0.037635
  C       1.509041     -0.401742     -0.027147
  C       0.206457     -0.886575      0.071903
  C      -0.839619      0.016910      0.224502
  Cl     -2.489547     -0.600334      0.341351
  O       2.530289     -1.287005     -0.189959
  O       3.078253      1.351045      0.020724
  C       3.489149      2.454721     -0.693326
  C       4.481711      3.266176     -0.136380
  C       4.993520      4.350376     -0.843113
  C       4.495589      4.619325     -2.112741
  C       3.507008      3.823224     -2.685081
  C       3.010567      2.738802     -1.970440
  Cl      5.133467      5.995752     -3.009130
  Cl      5.100333      2.918961      1.467404
  H      -1.443774      2.079648      0.414200
  H       0.877294      2.931488      0.259504
  H       0.032269     -1.954048      0.023603
  H       3.371594     -0.806173     -0.194963
  H       5.762227      4.971199     -0.402424
  H       3.133260      4.035310     -3.678518
  H       2.249268      2.107361     -2.411618
24
Coordinates from ORCA-job Triclosan\Triclosan_B3LYP_6-311+G\Triclosan_B3LYP_6-311+G.orcainp E -1992.227250291818
  C      -0.621561      1.391815      0.301228
  C       0.687045      1.870081      0.230593
  C       1.741471      0.983815      0.058086
  C       1.511715     -0.396704     -0.033840
  C       0.207651     -0.883196      0.045716
  C      -0.835581      0.020606      0.209605
  Cl     -2.487100     -0.601534      0.306656
  O       2.535147     -1.275040     -0.197097
  O       3.077454      1.362199      0.051165
  C       3.489673      2.456111     -0.677226
  C       4.483451      3.274950     -0.131932
  C       4.995464      4.351601     -0.849942
  C       4.493682      4.603757     -2.121267
  C       3.504085      3.805038     -2.685328
  C       3.009130      2.727141     -1.957925
  Cl      5.133464      5.969681     -3.034451
  Cl      5.102288      2.945659      1.475872
  H      -1.449091      2.076707      0.432148
  H       0.879745      2.933761      0.306330
  H       0.031314     -1.949277     -0.024636
  H       3.371652     -0.785496     -0.225109
  H       5.764314      4.977794     -0.416827
  H       3.128761      4.009275     -3.680066
  H       2.245268      2.090176     -2.387584
24
Coordinates from ORCA-job Triclosan\Triclosan_B3LYP_6-311+G\Triclosan_B3LYP_6-311+G.orcainp E -1992.227280674339
  C      -0.621762      1.393395      0.303802
  C       0.687665      1.872122      0.246427
  C       1.742618      0.987278      0.070543
  C       1.514573     -0.392794     -0.034596
  C       0.209379     -0.879702      0.029335
  C      -0.834054      0.023497      0.195034
  Cl     -2.486351     -0.599253      0.270788
  O       2.539400     -1.269848     -0.194129
  O       3.078055      1.370089      0.072229
  C       3.490058      2.457415     -0.666085
  C       4.488269      3.277479     -0.130787
  C       4.998110      4.350128     -0.856667
  C       4.489353      4.595924     -2.126473
  C       3.496641      3.795437     -2.681981
  C       3.004066      2.721849     -1.946383
  Cl      5.124870      5.956760     -3.049490
  Cl      5.116406      2.955159      1.474310
  H      -1.450412      2.076429      0.436604
  H       0.881552      2.934509      0.335805
  H       0.032124     -1.944550     -0.054093
  H       3.374572     -0.778151     -0.224955
  H       5.770007      4.977461     -0.431004
  H       3.116386      3.995626     -3.675556
  H       2.237914      2.082663     -2.368507
24
Coordinates from ORCA-job Triclosan\Triclosan_B3LYP_6-311+G\Triclosan_B3LYP_6-311+G.orcainp E -1992.227325112942
  C      -0.626299      1.392970      0.309825
  C       0.682503      1.875664      0.277773
  C       1.741612      0.997181      0.094357
  C       1.520294     -0.381153     -0.038222
  C       0.215112     -0.872423     -0.003014
  C      -0.832565      0.025125      0.167637
  Cl     -2.483738     -0.602567      0.203442
  O       2.549685     -1.253706     -0.195972
  O       3.074500      1.391642      0.116716
  C       3.488471      2.463487     -0.642837
  C       4.498379      3.282315     -0.128233
  C       5.007295      4.343888     -0.871464
  C       4.486328      4.578490     -2.138567
  C       3.483806      3.776988     -2.674798
  C       2.992004      2.715335     -1.921728
  Cl      5.117733      5.925646     -3.082836
  Cl      5.144249      2.973273      1.471609
  H      -1.458515      2.070272      0.448553
  H       0.874743      2.935607      0.395079
  H       0.040134     -1.935115     -0.112091
  H       3.382500     -0.758019     -0.224225
  H       5.787831      4.970708     -0.461556
  H       3.094480      3.968289     -3.666441
  H       2.218899      2.075023     -2.328836
24
Coordinates from ORCA-job Triclosan\Triclosan_B3LYP_6-311+G\Triclosan_B3LYP_6-311+G.orcainp E -1992.227377456857
  C      -0.640382      1.385304      0.321389
  C       0.663906      1.879550      0.323704
  C       1.733869      1.016564      0.127982
  C       1.528880     -0.358531     -0.047247
  C       0.227338     -0.862018     -0.049201
  C      -0.831416      0.020399      0.132004
  Cl     -2.476509     -0.621815      0.117699
  O       2.568024     -1.219495     -0.209976
  O       3.060380      1.432718      0.183089
  C       3.481573      2.478403     -0.608382
  C       4.513090      3.288925     -0.124644
  C       5.027638      4.328564     -0.894824
  C       4.492016      4.548966     -2.158518
  C       3.469515      3.752844     -2.664677
  C       2.971288      2.714067     -1.884828
  Cl      5.128220      5.868978     -3.136182
  Cl      5.180543      2.997777      1.469105
  H      -1.480879      2.049892      0.470461
  H       0.847131      2.936146      0.479534
  H       0.062345     -1.921794     -0.194495
  H       3.396506     -0.716422     -0.225885
  H       5.824474      4.949506     -0.508398
  H       3.068817      3.931660     -3.653971
  H       2.183072      2.078731     -2.269568
24
Coordinates from ORCA-job Triclosan\Triclosan_B3LYP_6-311+G\Triclosan_B3LYP_6-311+G.orcainp E -1992.227434621869
  C      -0.661509      1.370003      0.331017
  C       0.634577      1.881724      0.363848
  C       1.720242      1.040202      0.158049
  C       1.538050     -0.331455     -0.056849
  C       0.243701     -0.853057     -0.090307
  C      -0.830910      0.007605      0.100686
  Cl     -2.465428     -0.656700      0.046447
  O       2.589836     -1.176479     -0.227565
  O       3.037022      1.482953      0.246760
  C       3.470544      2.498827     -0.576312
  C       4.530033      3.291231     -0.123740
  C       5.056644      4.304359     -0.920271
  C       4.507133      4.517559     -2.179383
  C       3.457097      3.737557     -2.653841
  C       2.945404      2.725607     -1.848110
  Cl      5.158130      5.805081     -3.189659
  Cl      5.216829      3.011274      1.463779
  H      -1.513343      2.017880      0.488927
  H       0.801907      2.935797      0.551775
  H       0.095626     -1.910663     -0.266186
  H       3.413517     -0.666021     -0.217599
  H       5.874700      4.911715     -0.557340
  H       3.044417      3.908618     -3.639543
  H       2.135219      2.105302     -2.210412
24
Coordinates from ORCA-job Triclosan\Triclosan_B3LYP_6-311+G\Triclosan_B3LYP_6-311+G.orcainp E -1992.227515102193
  C      -0.695989      1.341270      0.341611
  C       0.585454      1.882571      0.405417
  C       1.695497      1.074887      0.189999
  C       1.549739     -0.292534     -0.068431
  C       0.268957     -0.844620     -0.131951
  C      -0.830024     -0.018793      0.070372
  Cl     -2.445992     -0.721321     -0.018875
  O       2.621029     -1.109882     -0.254269
  O       2.996174      1.555036      0.316958
  C       3.451215      2.530601     -0.542071
  C       4.551827      3.287419     -0.126331
  C       5.101697      4.262416     -0.952818
  C       4.537128      4.476386     -2.205290
  C       3.445505      3.731924     -2.641165
  C       2.908311      2.757461     -1.806009
  Cl      5.219944      5.716782     -3.253329
  Cl      5.258453      3.009986      1.453748
  H      -1.565476      1.963301      0.507728
  H       0.725084      2.935052      0.623369
  H       0.150407     -1.900717     -0.337652
  H       3.436555     -0.590287     -0.196066
  H       5.951250      4.842049     -0.617484
  H       3.018548      3.901097     -3.621225
  H       2.064145      2.168837     -2.142065
24
Coordinates from ORCA-job Triclosan\Triclosan_B3LYP_6-311+G\Triclosan_B3LYP_6-311+G.orcainp E -1992.227554558322
  C      -0.724724      1.315552      0.350642
  C       0.544080      1.882598      0.432691
  C       1.673059      1.103336      0.210431
  C       1.557929     -0.260924     -0.077254
  C       0.289622     -0.839452     -0.156977
  C      -0.828107     -0.042504      0.054617
  Cl     -2.427851     -0.778983     -0.052051
  O       2.645590     -1.050781     -0.279427
  O       2.960617      1.610520      0.360328
  C       3.434975      2.555250     -0.521446
  C       4.566520      3.280508     -0.130251
  C       5.136897      4.225866     -0.975492
  C       4.563311      4.444511     -2.223346
  C       3.440493      3.733888     -2.633853
  C       2.881107      2.788190     -1.779250
  Cl      5.276127      5.646845     -3.296697
  Cl      5.283647      2.998577      1.445361
  H      -1.608702      1.915776      0.521204
  H       0.659924      2.934329      0.667985
  H       0.196953     -1.894629     -0.380942
  H       3.452293     -0.524391     -0.176606
  H       6.010203      4.780178     -0.658083
  H       3.004639      3.906070     -3.609662
  H       2.010838      2.228589     -2.097755
24
Coordinates from ORCA-job Triclosan\Triclosan_B3LYP_6-311+G\Triclosan_B3LYP_6-311+G.orcainp E -1992.227573764519
  C      -0.720969      1.318944      0.346075
  C       0.550406      1.882793      0.420583
  C       1.675579      1.097729      0.201944
  C       1.554872     -0.268958     -0.075616
  C       0.284644     -0.844000     -0.146356
  C      -0.829097     -0.040731      0.062190
  Cl     -2.432047     -0.773489     -0.031970
  O       2.640069     -1.060946     -0.277089
  O       2.966715      1.596559      0.344083
  C       3.439374      2.548974     -0.529766
  C       4.565933      3.278999     -0.132064
  C       5.132968      4.232305     -0.970295
  C       4.559908      4.454050     -2.217889
  C       3.442154      3.740500     -2.635443
  C       2.886457      2.786359     -1.787169
  Cl      5.269881      5.665750     -3.283236
  Cl      5.280259      2.991966      1.444205
  H      -1.602654      1.923688      0.512540
  H       0.669584      2.936264      0.646269
  H       0.188858     -1.900900     -0.360969
  H       3.447764     -0.537115     -0.167123
  H       6.002315      4.789922     -0.647726
  H       3.007041      3.916351     -3.610964
  H       2.019427      2.223908     -2.110044
24
Coordinates from ORCA-job Triclosan\Triclosan_B3LYP_6-311+G\Triclosan_B3LYP_6-311+G.orcainp E -1992.227581271175
  C      -0.721491      1.318771      0.344609
  C       0.550107      1.883299      0.420430
  C       1.674885      1.098300      0.201980
  C       1.555284     -0.269243     -0.074814
  C       0.285302     -0.844706     -0.146924
  C      -0.828012     -0.040376      0.060210
  Cl     -2.431037     -0.773759     -0.036016
  O       2.641994     -1.058697     -0.274223
  O       2.966520      1.596015      0.343071
  C       3.439016      2.548819     -0.529951
  C       4.567481      3.276983     -0.133799
  C       5.134570      4.230597     -0.971589
  C       4.558681      4.453761     -2.217719
  C       3.440008      3.742319     -2.635007
  C       2.884826      2.787505     -1.786660
  Cl      5.268390      5.666391     -3.282535
  Cl      5.284223      2.986255      1.440681
  H      -1.603689      1.923062      0.509739
  H       0.668831      2.936757      0.646548
  H       0.190255     -1.901678     -0.361354
  H       3.447815     -0.533795     -0.154584
  H       6.004994      4.786901     -0.649906
  H       3.003386      3.919981     -3.609490
  H       2.017101      2.225461     -2.108530
24
Coordinates from ORCA-job Triclosan\Triclosan_B3LYP_6-311+G\Triclosan_B3LYP_6-311+G.orcainp E -1992.227582854523
  C      -0.722058      1.318548      0.343283
  C       0.549330      1.883700      0.421579
  C       1.674371      1.099268      0.203542
  C       1.556210     -0.268418     -0.073541
  C       0.286644     -0.844430     -0.148706
  C      -0.827119     -0.040151      0.057030
  Cl     -2.429780     -0.773975     -0.044027
  O       2.644438     -1.056419     -0.270565
  O       2.965793      1.597801      0.345686
  C       3.438613      2.548986     -0.528913
  C       4.569119      3.275169     -0.134972
  C       5.136091      4.228311     -0.973533
  C       4.557800      4.452444     -2.218414
  C       3.437486      3.742680     -2.633954
  C       2.882539      2.788530     -1.784673
  Cl      5.266702      5.664930     -3.283959
  Cl      5.288792      2.982597      1.437681
  H      -1.604815      1.922091      0.507923
  H       0.667427      2.936805      0.649532
  H       0.192209     -1.901173     -0.364264
  H       3.448766     -0.530167     -0.146638
  H       6.008000      4.783164     -0.653546
  H       2.999239      3.921196     -3.607501
  H       2.013645      2.227433     -2.104882
24
Coordinates from ORCA-job Triclosan\Triclosan_B3LYP_6-311+G\Triclosan_B3LYP_6-311+G.orcainp E -1992.227583197646
  C      -0.721863      1.318779      0.342599
  C       0.549560      1.883833      0.421470
  C       1.674456      1.099168      0.203812
  C       1.556411     -0.268532     -0.072893
  C       0.286894     -0.844415     -0.148897
  C      -0.826894     -0.039863      0.056166
  Cl     -2.429611     -0.773423     -0.046366
  O       2.645081     -1.056453     -0.268785
  O       2.965985      1.597793      0.346190
  C       3.438643      2.548754     -0.528885
  C       4.569448      3.274559     -0.135292
  C       5.136108      4.227930     -0.973893
  C       4.557232      4.452512     -2.218393
  C       3.436685      3.742812     -2.633607
  C       2.882024      2.788598     -1.784332
  Cl      5.265456      5.665409     -3.283891
  Cl      5.290178      2.981363      1.436679
  H      -1.604603      1.922352      0.507150
  H       0.667744      2.936839      0.649774
  H       0.192168     -1.901097     -0.364519
  H       3.448914     -0.529527     -0.144458
  H       6.008323      4.782498     -0.654292
  H       2.998056      3.921535     -3.606931
  H       2.013046      2.227496     -2.104235
