33
Coordinates from ORCA-job Dexketoprofen\Dexketoprofen_B3LYP_STO-3G\Dexketoprofen_B3LYP_STO-3G.orcainp E -832.596527170154
  H       1.096620     -0.204250      0.326760
  C       2.137970     -0.111080     -0.010520
  C       2.126490      0.628040     -1.353530
  C       2.826660      0.751010      1.050360
  O       3.428370      0.075300      2.055840
  O       2.792360      1.973800      1.053180
  C       2.717610     -1.512460     -0.178170
  C       1.934000     -2.645630      0.113490
  C       2.467640     -3.936280     -0.026370
  C       3.771140     -4.099040     -0.505320
  C       4.554480     -2.984060     -0.794800
  C       4.035830     -1.700720     -0.623710
  C       1.687330     -5.163750      0.284290
  O       1.872990     -6.170870     -0.395240
  C       0.709640     -5.216690      1.402780
  C       0.854150     -4.432050      2.553800
  C      -0.089410     -4.514770      3.579380
  C      -1.163440     -5.397910      3.472030
  C      -1.292130     -6.207760      2.344340
  C      -0.355680     -6.121550      1.313020
  H       1.607840      1.589440     -1.266130
  H       1.616620      0.042150     -2.125850
  H       3.141630      0.843600     -1.706810
  H       3.413980     -0.896960      1.965340
  H       0.900040     -2.519110      0.430070
  H       4.177980     -5.098100     -0.655070
  H       5.569680     -3.118220     -1.162310
  H       4.671990     -0.847090     -0.857040
  H       1.702840     -3.767060      2.680650
  H       0.018440     -3.899190      4.469450
  H      -1.893260     -5.465960      4.274870
  H      -2.118240     -6.910830      2.269520
  H      -0.455990     -6.765520      0.440940
33
Coordinates from ORCA-job Dexketoprofen\Dexketoprofen_B3LYP_STO-3G\Dexketoprofen_B3LYP_STO-3G.orcainp E -832.619754006756
  H       1.078797     -0.232096      0.341637
  C       2.123993     -0.110441     -0.009307
  C       2.077828      0.660148     -1.364949
  C       2.842819      0.776497      1.092884
  O       3.493028      0.089725      2.112864
  O       2.813124      2.027439      1.107292
  C       2.735395     -1.519985     -0.182589
  C       1.970243     -2.673133      0.114241
  C       2.515849     -3.969822     -0.041128
  C       3.836148     -4.110781     -0.527894
  C       4.608131     -2.972252     -0.819287
  C       4.064837     -1.686416     -0.640970
  C       1.714818     -5.241947      0.257512
  O       1.903415     -6.285167     -0.435296
  C       0.696017     -5.250064      1.400216
  C       0.834161     -4.426532      2.542992
  C      -0.117162     -4.484560      3.579376
  C      -1.207461     -5.371553      3.489115
  C      -1.339950     -6.211688      2.366207
  C      -0.390848     -6.154216      1.329459
  H       1.545775      1.617938     -1.247732
  H       1.556440      0.070210     -2.134900
  H       3.090975      0.884031     -1.733785
  H       3.445011     -0.918011      1.949465
  H       0.929458     -2.558769      0.449663
  H       4.256331     -5.115698     -0.679596
  H       5.636182     -3.088259     -1.191304
  H       4.686282     -0.809188     -0.871739
  H       1.693969     -3.749310      2.645131
  H      -0.006136     -3.840419      4.463454
  H      -1.949929     -5.415325      4.299317
  H      -2.182204     -6.915407      2.300600
  H      -0.489168     -6.818521      0.458289
33
Coordinates from ORCA-job Dexketoprofen\Dexketoprofen_B3LYP_STO-3G\Dexketoprofen_B3LYP_STO-3G.orcainp E -832.622118025403
  H       1.078179     -0.251302      0.367259
  C       2.115636     -0.120692     -0.001676
  C       2.051585      0.663233     -1.353385
  C       2.863328      0.767206      1.098704
  O       3.528941      0.069856      2.123583
  O       2.860276      2.021014      1.110527
  C       2.741465     -1.526817     -0.172218
  C       1.991426     -2.685587      0.141785
  C       2.540532     -3.980775     -0.027627
  C       3.858906     -4.112194     -0.531831
  C       4.619794     -2.966294     -0.834719
  C       4.067392     -1.682383     -0.652959
  C       1.732859     -5.264371      0.257827
  O       1.927247     -6.312539     -0.427968
  C       0.692898     -5.249291      1.394773
  C       0.812800     -4.400334      2.524057
  C      -0.139303     -4.457734      3.561827
  C      -1.222335     -5.358873      3.481374
  C      -1.344474     -6.215205      2.365753
  C      -0.389182     -6.164382      1.332704
  H       1.541358      1.628372     -1.207516
  H       1.496116      0.083193     -2.106808
  H       3.061841      0.861239     -1.744209
  H       3.421431     -0.925083      1.904406
  H       0.959445     -2.577033      0.504501
  H       4.281572     -5.116247     -0.681621
  H       5.645354     -3.073300     -1.215054
  H       4.673081     -0.796519     -0.891580
  H       1.659633     -3.705022      2.605485
  H      -0.037281     -3.798786      4.435422
  H      -1.967485     -5.397329      4.288643
  H      -2.182671     -6.923343      2.303712
  H      -0.474194     -6.836248      0.466071
33
Coordinates from ORCA-job Dexketoprofen\Dexketoprofen_B3LYP_STO-3G\Dexketoprofen_B3LYP_STO-3G.orcainp E -832.622534312713
  H       1.067941     -0.239090      0.319804
  C       2.109735     -0.110543     -0.036321
  C       2.072885      0.672192     -1.389486
  C       2.850344      0.781057      1.071137
  O       3.467353      0.076846      2.136197
  O       2.879186      2.033476      1.065374
  C       2.741974     -1.517035     -0.180011
  C       1.990264     -2.673212      0.138741
  C       2.542652     -3.969581     -0.010869
  C       3.863514     -4.103490     -0.508449
  C       4.626581     -2.960093     -0.814726
  C       4.071974     -1.675201     -0.650663
  C       1.725692     -5.255284      0.259836
  O       1.906696     -6.292742     -0.440626
  C       0.688834     -5.244149      1.404681
  C       0.841740     -4.448844      2.568888
  C      -0.102448     -4.525801      3.612089
  C      -1.209952     -5.393586      3.504586
  C      -1.364484     -6.198399      2.354958
  C      -0.416033     -6.130075      1.317509
  H       1.594856      1.652512     -1.238273
  H       1.495998      0.106005     -2.137344
  H       3.090436      0.831224     -1.777890
  H       3.315626     -0.909291      1.893917
  H       0.954592     -2.560903      0.488362
  H       4.284786     -5.110179     -0.644640
  H       5.655573     -3.068945     -1.185549
  H       4.673982     -0.788081     -0.894110
  H       1.709965     -3.783463      2.667775
  H       0.027290     -3.909598      4.512921
  H      -1.947626     -5.447970      4.317857
  H      -2.222414     -6.880295      2.270896
  H      -0.521347     -6.761033      0.422669
33
Coordinates from ORCA-job Dexketoprofen\Dexketoprofen_B3LYP_STO-3G\Dexketoprofen_B3LYP_STO-3G.orcainp E -832.622665132273
  H       1.066304     -0.255358      0.336234
  C       2.105903     -0.122779     -0.024139
  C       2.064554      0.674428     -1.367446
  C       2.851298      0.757057      1.087426
  O       3.444816      0.037204      2.159752
  O       2.916860      2.006318      1.073262
  C       2.739881     -1.526541     -0.180849
  C       1.994774     -2.685610      0.141881
  C       2.550252     -3.978636     -0.016800
  C       3.867931     -4.107277     -0.521694
  C       4.624094     -2.961223     -0.832459
  C       4.066032     -1.679285     -0.663522
  C       1.739238     -5.265105      0.261099
  O       1.929942     -6.308527     -0.423752
  C       0.697152     -5.242092      1.399151
  C       0.832278     -4.414449      2.541501
  C      -0.115846     -4.478635      3.581110
  C      -1.209332     -5.364898      3.490703
  C      -1.348043     -6.198881      2.360644
  C      -0.396054     -6.142817      1.326569
  H       1.611600      1.662940     -1.194778
  H       1.462165      0.129599     -2.110831
  H       3.079117      0.815017     -1.769651
  H       3.268948     -0.943659      1.912447
  H       0.964177     -2.577425      0.508426
  H       4.290963     -5.112634     -0.661184
  H       5.650710     -3.065488     -1.210821
  H       4.661767     -0.788718     -0.908971
  H       1.688067     -3.730198      2.622546
  H      -0.000232     -3.836899      4.465762
  H      -1.949973     -5.409282      4.301672
  H      -2.196485     -6.893807      2.289642
  H      -0.486688     -6.795911      0.446309
33
Coordinates from ORCA-job Dexketoprofen\Dexketoprofen_B3LYP_STO-3G\Dexketoprofen_B3LYP_STO-3G.orcainp E -832.622731896231
  H       1.064972     -0.258528      0.325567
  C       2.106298     -0.125053     -0.029492
  C       2.071882      0.679258     -1.368245
  C       2.846469      0.746970      1.089793
  O       3.384630      0.020791      2.187198
  O       2.935347      1.993883      1.071739
  C       2.739374     -1.528770     -0.188693
  C       1.994691     -2.687793      0.135236
  C       2.551212     -3.980432     -0.022258
  C       3.868545     -4.109007     -0.526681
  C       4.624298     -2.963016     -0.838048
  C       4.065956     -1.681496     -0.669607
  C       1.742197     -5.265995      0.260283
  O       1.932110     -6.310540     -0.422289
  C       0.702589     -5.240905      1.399272
  C       0.840840     -4.411829      2.539836
  C      -0.106251     -4.472823      3.580473
  C      -1.201177     -5.357067      3.492415
  C      -1.342593     -6.192868      2.364268
  C      -0.391883     -6.139992      1.329016
  H       1.639815      1.675466     -1.186394
  H       1.454537      0.151470     -2.111461
  H       3.086550      0.803989     -1.775256
  H       3.195304     -0.958250      1.945516
  H       0.963866     -2.579762      0.500681
  H       4.291579     -5.114349     -0.665454
  H       5.650896     -3.067059     -1.216169
  H       4.661279     -0.790633     -0.914430
  H       1.698292     -3.729661      2.618491
  H       0.011283     -3.829938      4.463881
  H      -1.940878     -5.398790      4.304204
  H      -2.192108     -6.886533      2.295899
  H      -0.483748     -6.794309      0.449947
33
Coordinates from ORCA-job Dexketoprofen\Dexketoprofen_B3LYP_STO-3G\Dexketoprofen_B3LYP_STO-3G.orcainp E -832.622766572488
  H       1.061105     -0.257480      0.307194
  C       2.104633     -0.123493     -0.041513
  C       2.078693      0.686997     -1.376117
  C       2.838563      0.739542      1.086399
  O       3.306096      0.009365      2.212298
  O       2.999905      1.977752      1.041824
  C       2.736837     -1.527521     -0.200673
  C       1.991635     -2.685981      0.124199
  C       2.550774     -3.978746     -0.025880
  C       3.869595     -4.107748     -0.524934
  C       4.626086     -2.961969     -0.835650
  C       4.066344     -1.680742     -0.672231
  C       1.743458     -5.263489      0.260093
  O       1.931805     -6.308117     -0.423155
  C       0.708315     -5.240623      1.402089
  C       0.856827     -4.422368      2.549144
  C      -0.088564     -4.483906      3.591461
  C      -1.190676     -5.358315      3.498572
  C      -1.340843     -6.185280      2.365152
  C      -0.392176     -6.131975      1.328032
  H       1.680654      1.695346     -1.183224
  H       1.437081      0.184354     -2.115958
  H       3.092009      0.785641     -1.793492
  H       3.086959     -0.966288      1.986969
  H       0.957717     -2.577743      0.479793
  H       4.293418     -5.113186     -0.659884
  H       5.654377     -3.066199     -1.208793
  H       4.662292     -0.789861     -0.914999
  H       1.721517     -3.750453      2.632121
  H       0.036096     -3.849400      4.479812
  H      -1.928817     -5.400334      4.311639
  H      -2.195539     -6.872154      2.294472
  H      -0.490006     -6.779198      0.444478
33
Coordinates from ORCA-job Dexketoprofen\Dexketoprofen_B3LYP_STO-3G\Dexketoprofen_B3LYP_STO-3G.orcainp E -832.622793379034
  H       1.066804     -0.259516      0.322548
  C       2.106883     -0.124536     -0.036153
  C       2.067929      0.684179     -1.371663
  C       2.852873      0.739422      1.084267
  O       3.319770      0.012380      2.211863
  O       3.011167      1.978710      1.040111
  C       2.739215     -1.528387     -0.198161
  C       1.995574     -2.687233      0.128661
  C       2.554580     -3.979986     -0.023732
  C       3.872576     -4.108228     -0.526067
  C       4.627506     -2.961806     -0.839217
  C       4.067192     -1.680730     -0.674677
  C       1.747383     -5.265614      0.262163
  O       1.937766     -6.311501     -0.419632
  C       0.708399     -5.241107      1.401616
  C       0.851057     -4.417421      2.545833
  C      -0.097151     -4.477303      3.585853
  C      -1.196554     -5.355599      3.493606
  C      -1.341347     -6.187394      2.362767
  C      -0.389819     -6.135620      1.328031
  H       1.670306      1.692413     -1.176993
  H       1.420362      0.179263     -2.104857
  H       3.077332      0.783356     -1.798419
  H       3.098738     -0.963409      1.986385
  H       0.962766     -2.579609      0.488368
  H       4.296795     -5.113461     -0.662157
  H       5.655005     -3.065476     -1.215129
  H       4.661951     -0.789469     -0.919647
  H       1.713131     -3.741643      2.628131
  H       0.023062     -3.838537      4.471954
  H      -1.937098     -5.396352      4.304776
  H      -2.194202     -6.876833      2.292225
  H      -0.483780     -6.786522      0.446583
33
Coordinates from ORCA-job Dexketoprofen\Dexketoprofen_B3LYP_STO-3G\Dexketoprofen_B3LYP_STO-3G.orcainp E -832.622800570476
  H       1.072165     -0.258649      0.336901
  C       2.108773     -0.123736     -0.031653
  C       2.057771      0.680460     -1.369424
  C       2.866271      0.742820      1.079500
  O       3.335601      0.020135      2.208411
  O       3.031175      1.981416      1.028119
  C       2.741098     -1.527720     -0.194391
  C       1.997938     -2.686629      0.132903
  C       2.556479     -3.979510     -0.021122
  C       3.873951     -4.107472     -0.525438
  C       4.628267     -2.960813     -0.839673
  C       4.068084     -1.679715     -0.673852
  C       1.749154     -5.265669      0.263776
  O       1.941940     -6.312099     -0.417027
  C       0.707429     -5.241517      1.401277
  C       0.846013     -4.416206      2.544987
  C      -0.104064     -4.476811      3.583309
  C      -1.201772     -5.357310      3.489826
  C      -1.342741     -6.190452      2.359403
  C      -0.389207     -6.137970      1.326474
  H       1.660510      1.688999     -1.175513
  H       1.404869      0.171911     -2.095369
  H       3.063496      0.779137     -1.805036
  H       3.110489     -0.956090      1.987747
  H       0.965829     -2.579262      0.494783
  H       4.298342     -5.112570     -0.662321
  H       5.655166     -3.064415     -1.217322
  H       4.662368     -0.788484     -0.920306
  H       1.706415     -3.738365      2.628508
  H       0.013186     -3.836913      4.469019
  H      -1.943946     -5.398616      4.299514
  H      -2.194228     -6.881502      2.287711
  H      -0.480648     -6.789952      0.445520
33
Coordinates from ORCA-job Dexketoprofen\Dexketoprofen_B3LYP_STO-3G\Dexketoprofen_B3LYP_STO-3G.orcainp E -832.622807124782
  H       1.081864     -0.256569      0.362021
  C       2.112077     -0.122400     -0.024183
  C       2.039446      0.672435     -1.366332
  C       2.889100      0.750147      1.068763
  O       3.358463      0.037349      2.203607
  O       3.070452      1.985862      0.999318
  C       2.744212     -1.526686     -0.188020
  C       2.001884     -2.685736      0.140098
  C       2.559906     -3.978640     -0.016463
  C       3.876341     -4.106035     -0.523983
  C       4.629727     -2.959052     -0.839519
  C       4.069736     -1.678047     -0.671635
  C       1.753208     -5.265569      0.267541
  O       1.947860     -6.311774     -0.413418
  C       0.706995     -5.242190      1.401302
  C       0.840642     -4.417513      2.546161
  C      -0.113113     -4.479433      3.581049
  C      -1.210019     -5.360605      3.483020
  C      -1.346253     -6.192938      2.351384
  C      -0.388936     -6.139128      1.321975
  H       1.644255      1.682118     -1.174149
  H       1.375963      0.157840     -2.078335
  H       3.038227      0.768566     -1.818285
  H       3.122434     -0.939439      1.996830
  H       0.970754     -2.578851      0.504943
  H       4.300859     -5.110885     -0.662417
  H       5.655668     -3.062481     -1.219865
  H       4.663331     -0.786763     -0.919767
  H       1.700113     -3.738953      2.633754
  H       0.000500     -3.840102      4.467666
  H      -1.955193     -5.402982      4.289920
  H      -2.197055     -6.884461      2.275915
  H      -0.477280     -6.790652      0.440346
33
Coordinates from ORCA-job Dexketoprofen\Dexketoprofen_B3LYP_STO-3G\Dexketoprofen_B3LYP_STO-3G.orcainp E -832.622811749327
  H       1.096222     -0.250435      0.395180
  C       2.117626     -0.119011     -0.014509
  C       2.016685      0.661001     -1.363362
  C       2.920236      0.763012      1.051660
  O       3.388821      0.066004      2.196685
  O       3.124208      1.993441      0.954255
  C       2.748227     -1.524356     -0.178717
  C       2.004770     -2.682992      0.147608
  C       2.561010     -3.976311     -0.012204
  C       3.877060     -4.104038     -0.520893
  C       4.631393     -2.957336     -0.835077
  C       4.072851     -1.675987     -0.664490
  C       1.753232     -5.263463      0.267647
  O       1.954689     -6.310487     -0.410202
  C       0.704257     -5.243231      1.399117
  C       0.834041     -4.421139      2.546322
  C      -0.122258     -4.486303      3.578650
  C      -1.218180     -5.368262      3.475879
  C      -1.350626     -6.197993      2.341896
  C      -0.390652     -6.140935      1.315090
  H       1.622830      1.672036     -1.175631
  H       1.340772      0.136584     -2.056304
  H       3.006342      0.753602     -1.835793
  H       3.135451     -0.910958      2.012626
  H       0.974144     -2.575779      0.513761
  H       4.300647     -5.108973     -0.661519
  H       5.656825     -3.061373     -1.216624
  H       4.667145     -0.784992     -0.912224
  H       1.692525     -3.741877      2.638263
  H      -0.011452     -3.848963      4.467056
  H      -1.965382     -5.413262      4.280761
  H      -2.200567     -6.890137      2.262434
  H      -0.476723     -6.790659      0.431899
33
Coordinates from ORCA-job Dexketoprofen\Dexketoprofen_B3LYP_STO-3G\Dexketoprofen_B3LYP_STO-3G.orcainp E -832.622816385176
  H       1.104828     -0.249493      0.417442
  C       2.120278     -0.119160     -0.007054
  C       2.000122      0.651000     -1.360074
  C       2.936774      0.770496      1.041271
  O       3.408342      0.084382      2.192137
  O       3.151062      1.997412      0.925713
  C       2.750890     -1.524478     -0.172262
  C       2.008104     -2.683552      0.153629
  C       2.564383     -3.976464     -0.008839
  C       3.879447     -4.103221     -0.520213
  C       4.632943     -2.956068     -0.834334
  C       4.074471     -1.675070     -0.660919
  C       1.758279     -5.264307      0.271491
  O       1.958093     -6.309955     -0.408759
  C       0.705527     -5.243739      1.399274
  C       0.833584     -4.424945      2.548952
  C      -0.126423     -4.490142      3.577801
  C      -1.224406     -5.368735      3.469061
  C      -1.355165     -6.195231      2.332584
  C      -0.391505     -6.138207      1.309239
  H       1.604177      1.661755     -1.175349
  H       1.318398      0.118646     -2.041173
  H       2.983955      0.743755     -1.844548
  H       3.144127     -0.892426      2.024101
  H       0.978216     -2.576986      0.521968
  H       4.302891     -5.107902     -0.662921
  H       5.657602     -3.059441     -1.218056
  H       4.667922     -0.783542     -0.908769
  H       1.693644     -3.748413      2.645753
  H      -0.016852     -3.855380      4.468174
  H      -1.974436     -5.413704      4.271272
  H      -2.206664     -6.884861      2.248400
  H      -0.476440     -6.785592      0.424248
33
Coordinates from ORCA-job Dexketoprofen\Dexketoprofen_B3LYP_STO-3G\Dexketoprofen_B3LYP_STO-3G.orcainp E -832.622819453351
  H       1.101499     -0.251073      0.409736
  C       2.119319     -0.120423     -0.008999
  C       2.006011      0.652165     -1.361462
  C       2.928600      0.767988      1.045135
  O       3.393628      0.079718      2.197939
  O       3.142223      1.994964      0.932759
  C       2.749896     -1.525495     -0.174289
  C       2.006426     -2.684633      0.149835
  C       2.563077     -3.977348     -0.012148
  C       3.878654     -4.104081     -0.521938
  C       4.632760     -2.956929     -0.834280
  C       4.074279     -1.676026     -0.660593
  C       1.757258     -5.264886      0.269153
  O       1.955917     -6.310706     -0.410881
  C       0.706618     -5.243380      1.398555
  C       0.838308     -4.425367      2.548273
  C      -0.120162     -4.489230      3.578625
  C      -1.219828     -5.365717      3.471324
  C      -1.354050     -6.191624      2.334866
  C      -0.392041     -6.135967      1.309930
  H       1.608014      1.662102     -1.176779
  H       1.328659      0.120599     -2.047486
  H       2.992588      0.746833     -1.839879
  H       3.127342     -0.896148      2.028643
  H       0.976040     -2.577960      0.516657
  H       4.301788     -5.108893     -0.664559
  H       5.657949     -3.060069     -1.216621
  H       4.667970     -0.784164     -0.906484
  H       1.699974     -3.750714      2.643536
  H      -0.007904     -3.854989      4.469025
  H      -1.968522     -5.409564      4.274824
  H      -2.206916     -6.879701      2.252006
  H      -0.479208     -6.782850      0.424817
33
Coordinates from ORCA-job Dexketoprofen\Dexketoprofen_B3LYP_STO-3G\Dexketoprofen_B3LYP_STO-3G.orcainp E -832.622820195263
  H       1.104326     -0.250177      0.416280
  C       2.120493     -0.120171     -0.006668
  C       2.001465      0.648882     -1.360789
  C       2.933446      0.771117      1.041785
  O       3.400951      0.086346      2.195848
  O       3.148022      1.997433      0.924601
  C       2.750730     -1.525348     -0.172020
  C       2.006884     -2.684423      0.151407
  C       2.563128     -3.977162     -0.011621
  C       3.878788     -4.103941     -0.521239
  C       4.633312     -2.956835     -0.832656
  C       4.075096     -1.675901     -0.658249
  C       1.756848     -5.264658      0.268348
  O       1.956725     -6.310640     -0.411073
  C       0.706059     -5.243616      1.397603
  C       0.838197     -4.426764      2.548084
  C      -0.120539     -4.490838      3.578186
  C      -1.220826     -5.366397      3.469871
  C      -1.355454     -6.191201      2.332663
  C      -0.393197     -6.135366      1.307972
  H       1.600282      1.657874     -1.177905
  H       1.324503      0.113174     -2.043966
  H       2.986724      0.745580     -1.841510
  H       3.131630     -0.889508      2.031629
  H       0.976423     -2.577625      0.517949
  H       4.301427     -5.108853     -0.664636
  H       5.658517     -3.059968     -1.214964
  H       4.668951     -0.783921     -0.903355
  H       1.700385     -3.752877      2.644014
  H      -0.007957     -3.857462      4.469160
  H      -1.969703     -5.410364      4.273193
  H      -2.208821     -6.878564      2.249032
  H      -0.480645     -6.781396      0.422265
