30
Coordinates from ORCA-job Diclofenac\Diclofenac_TPSS_6-311+G\Diclofenac_TPSS_6-311+G.orcainp E -1666.124884948897
  O       3.205320      0.772220     -3.481650
  C       3.019920     -0.423630     -2.872600
  O       2.604390     -1.407650     -3.475150
  C       3.320480     -0.407060     -1.391560
  C       4.773730     -0.128810     -1.082440
  C       5.669430     -1.213420     -1.106510
  C       7.032330     -1.021230     -0.890210
  C       7.514530      0.252740     -0.623930
  C       6.634980      1.334310     -0.584780
  C       5.265760      1.173910     -0.860410
  N       4.372990      2.291240     -0.867070
  C       4.785160      3.665540     -0.982660
  C       5.631810      4.129340     -2.012640
  Cl      6.084050      3.138420     -3.359060
  C       6.114230      5.444790     -2.012140
  C       5.706520      6.346220     -1.032240
  C       4.791760      5.941540     -0.063850
  C       4.335910      4.617880     -0.041360
  Cl      3.210470      4.170110      1.195600
  H       3.589430      1.448890     -2.883090
  H       3.044050     -1.389420     -0.980930
  H       2.647280      0.304940     -0.903990
  H       5.309890     -2.220540     -1.316240
  H       7.715650     -1.865180     -0.932480
  H       8.576730      0.411960     -0.457710
  H       7.049620      2.313470     -0.361060
  H       3.794580      2.213950     -0.021130
  H       6.806030      5.773050     -2.785740
  H       6.084520      7.366220     -1.038980
  H       4.444790      6.659400      0.676500
30
Coordinates from ORCA-job Diclofenac\Diclofenac_TPSS_6-311+G\Diclofenac_TPSS_6-311+G.orcainp E -1666.131691994002
  O       3.145791      0.882683     -3.456254
  C       2.990760     -0.328984     -2.873358
  O       2.603032     -1.280896     -3.529721
  C       3.328721     -0.387138     -1.390001
  C       4.800159     -0.125849     -1.099603
  C       5.691959     -1.211672     -1.120919
  C       7.057003     -1.031368     -0.881658
  C       7.544757      0.246511     -0.599015
  C       6.668136      1.333578     -0.567275
  C       5.301837      1.167675     -0.849357
  N       4.387340      2.277724     -0.864277
  C       4.817745      3.627510     -0.959884
  C       5.663817      4.085942     -1.990996
  Cl      6.140015      3.033220     -3.300268
  C       6.104095      5.412935     -2.034319
  C       5.664230      6.329479     -1.077608
  C       4.766174      5.922199     -0.089284
  C       4.352971      4.588942     -0.034998
  Cl      3.237407      4.115415      1.224188
  H       3.484776      1.547287     -2.819733
  H       3.057659     -1.381092     -1.020357
  H       2.676030      0.322619     -0.866666
  H       5.317782     -2.212210     -1.327378
  H       7.733019     -1.882754     -0.911990
  H       8.603584      0.400969     -0.405695
  H       7.068912      2.317617     -0.334323
  H       3.744861      2.191940     -0.071030
  H       6.779125      5.732855     -2.822720
  H       6.007371      7.359240     -1.113525
  H       4.397271      6.638823      0.638513
30
Coordinates from ORCA-job Diclofenac\Diclofenac_TPSS_6-311+G\Diclofenac_TPSS_6-311+G.orcainp E -1666.134324374349
  O       3.105838      0.989673     -3.422947
  C       3.001089     -0.252165     -2.890716
  O       2.622840     -1.167503     -3.598112
  C       3.343719     -0.381224     -1.407139
  C       4.820990     -0.132186     -1.109979
  C       5.708976     -1.218752     -1.109983
  C       7.070059     -1.046250     -0.834036
  C       7.555954      0.233866     -0.535568
  C       6.684196      1.326690     -0.529430
  C       5.328351      1.156426     -0.843439
  N       4.400144      2.263175     -0.885151
  C       4.840756      3.598499     -0.971238
  C       5.652506      4.078850     -2.022905
  Cl      6.085876      3.018054     -3.356063
  C       6.066387      5.410832     -2.084500
  C       5.638102      6.319005     -1.112259
  C       4.782577      5.895169     -0.091340
  C       4.399259      4.556800     -0.030658
  Cl      3.332120      4.040187      1.271942
  H       3.397622      1.631975     -2.738075
  H       3.075521     -1.389563     -1.087033
  H       2.698890      0.317438     -0.858686
  H       5.324681     -2.214680     -1.319306
  H       7.740085     -1.902544     -0.842492
  H       8.607700      0.384723     -0.304936
  H       7.066890      2.315621     -0.287627
  H       3.703520      2.173530     -0.141988
  H       6.702175      5.736504     -2.901555
  H       5.956604      7.355691     -1.160074
  H       4.422915      6.595358      0.655785
30
Coordinates from ORCA-job Diclofenac\Diclofenac_TPSS_6-311+G\Diclofenac_TPSS_6-311+G.orcainp E -1666.135711691946
  O       3.053016      1.081857     -3.323339
  C       2.964668     -0.190992     -2.860177
  O       2.638228     -1.074226     -3.632634
  C       3.345337     -0.408489     -1.395235
  C       4.824707     -0.147679     -1.118074
  C       5.719340     -1.227129     -1.090944
  C       7.078810     -1.041261     -0.813876
  C       7.556072      0.248231     -0.541246
  C       6.679874      1.337903     -0.561607
  C       5.328086      1.148111     -0.871422
  N       4.394588      2.252168     -0.946294
  C       4.848990      3.581475     -0.999829
  C       5.680859      4.076409     -2.029147
  Cl      6.175921      2.996497     -3.333333
  C       6.088285      5.408741     -2.083816
  C       5.635582      6.311672     -1.117120
  C       4.775309      5.878344     -0.103924
  C       4.406982      4.536863     -0.055081
  Cl      3.328193      3.995656      1.238887
  H       3.333933      1.681931     -2.592932
  H       3.103656     -1.440556     -1.137723
  H       2.707741      0.251672     -0.794545
  H       5.334750     -2.227769     -1.278022
  H       7.752397     -1.894201     -0.799993
  H       8.604816      0.409670     -0.304484
  H       7.046137      2.338619     -0.344773
  H       3.646344      2.157203     -0.256701
  H       6.736234      5.734270     -2.891211
  H       5.945029      7.351579     -1.158585
  H       4.402455      6.566632      0.647670
30
Coordinates from ORCA-job Diclofenac\Diclofenac_TPSS_6-311+G\Diclofenac_TPSS_6-311+G.orcainp E -1666.136854647699
  O       3.105905      1.172782     -3.274076
  C       2.995907     -0.122788     -2.882965
  O       2.617848     -0.955183     -3.689911
  C       3.353429     -0.423639     -1.426640
  C       4.823824     -0.165920     -1.113987
  C       5.713867     -1.246893     -1.038475
  C       7.068055     -1.057138     -0.740193
  C       7.544631      0.236551     -0.496625
  C       6.673898      1.329045     -0.561340
  C       5.325788      1.134084     -0.882569
  N       4.396727      2.239850     -0.984334
  C       4.854762      3.571332     -1.025600
  C       5.635617      4.092321     -2.081040
  Cl      6.091076      3.033394     -3.417551
  C       6.024383      5.429923     -2.136746
  C       5.608307      6.313161     -1.136250
  C       4.807565      5.854597     -0.086611
  C       4.458610      4.507738     -0.043385
  Cl      3.453989      3.929826      1.295901
  H       3.448494      1.717183     -2.521607
  H       3.114118     -1.471148     -1.236605
  H       2.703915      0.197188     -0.796902
  H       5.328470     -2.250082     -1.209826
  H       7.738492     -1.911234     -0.690475
  H       8.589029      0.400287     -0.242227
  H       7.035889      2.334541     -0.360843
  H       3.628418      2.148141     -0.315306
  H       6.627493      5.773118     -2.971041
  H       5.901123      7.358028     -1.178593
  H       4.466713      6.524134      0.696312
30
Coordinates from ORCA-job Diclofenac\Diclofenac_TPSS_6-311+G\Diclofenac_TPSS_6-311+G.orcainp E -1666.137159136736
  O       3.152208      1.155507     -3.292300
  C       2.986242     -0.127256     -2.888663
  O       2.540650     -0.952060     -3.670577
  C       3.350565     -0.431087     -1.434042
  C       4.817577     -0.169735     -1.116402
  C       5.704867     -1.250527     -1.006881
  C       7.058434     -1.054573     -0.711547
  C       7.537449      0.242331     -0.503566
  C       6.667680      1.333777     -0.590015
  C       5.317746      1.133823     -0.902526
  N       4.389668      2.238812     -1.011165
  C       4.847262      3.578758     -1.034562
  C       5.617841      4.109138     -2.091673
  Cl      6.077488      3.063959     -3.433627
  C       6.008082      5.447099     -2.136951
  C       5.606640      6.318622     -1.121575
  C       4.821674      5.849357     -0.065645
  C       4.468961      4.502072     -0.033156
  Cl      3.478369      3.921597      1.312003
  H       3.592196      1.683434     -2.567079
  H       3.114417     -1.481231     -1.252693
  H       2.696529      0.177112     -0.795059
  H       5.320223     -2.257392     -1.156926
  H       7.728030     -1.907771     -0.639551
  H       8.582999      0.410232     -0.256737
  H       7.032138      2.341812     -0.408390
  H       3.623536      2.142502     -0.339095
  H       6.603529      5.799357     -2.973188
  H       5.899087      7.364037     -1.157215
  H       4.494253      6.511492      0.729294
30
Coordinates from ORCA-job Diclofenac\Diclofenac_TPSS_6-311+G\Diclofenac_TPSS_6-311+G.orcainp E -1666.137364138541
  O       3.075920      1.155877     -3.262343
  C       2.966337     -0.135653     -2.878277
  O       2.531889     -0.969269     -3.657945
  C       3.355700     -0.444058     -1.430894
  C       4.821978     -0.170651     -1.118723
  C       5.713385     -1.247659     -1.000170
  C       7.066154     -1.044392     -0.706926
  C       7.541384      0.254669     -0.510195
  C       6.667349      1.341827     -0.603924
  C       5.317682      1.135781     -0.916374
  N       4.389754      2.237464     -1.049634
  C       4.844181      3.583964     -1.055401
  C       5.638888      4.113644     -2.093751
  Cl      6.123005      3.077979     -3.430509
  C       6.041009      5.449182     -2.120089
  C       5.628690      6.314804     -1.104772
  C       4.820137      5.843854     -0.067961
  C       4.452233      4.499300     -0.052753
  Cl      3.434957      3.925161      1.270767
  H       3.489190      1.700302     -2.525546
  H       3.138389     -1.500128     -1.258698
  H       2.694290      0.139530     -0.775589
  H       5.334222     -2.257658     -1.142090
  H       7.738960     -1.894587     -0.628112
  H       8.587914      0.428054     -0.271453
  H       7.032166      2.351508     -0.432659
  H       3.617351      2.137956     -0.384752
  H       6.657222      5.804427     -2.939927
  H       5.930780      7.357910     -1.126287
  H       4.485223      6.504063      0.725475
30
Coordinates from ORCA-job Diclofenac\Diclofenac_TPSS_6-311+G\Diclofenac_TPSS_6-311+G.orcainp E -1666.137411374441
  O       3.117762      1.154663     -3.288110
  C       2.973847     -0.128050     -2.891962
  O       2.575109     -0.968753     -3.682853
  C       3.354648     -0.439652     -1.441654
  C       4.817828     -0.167399     -1.111572
  C       5.708234     -1.244781     -0.990429
  C       7.059436     -1.042908     -0.688378
  C       7.534474      0.256172     -0.486597
  C       6.661749      1.344073     -0.586419
  C       5.314238      1.138117     -0.906548
  N       4.383474      2.238177     -1.047045
  C       4.838610      3.583514     -1.058383
  C       5.607800      4.115747     -2.114254
  Cl      6.039087      3.090314     -3.476700
  C       6.013820      5.450230     -2.141645
  C       5.631051      6.309168     -1.108723
  C       4.845983      5.833776     -0.055625
  C       4.472395      4.490803     -0.041277
  Cl      3.493359      3.905826      1.305292
  H       3.508244      1.703831     -2.542082
  H       3.137806     -1.496630     -1.274714
  H       2.685629      0.140541     -0.790957
  H       5.329653     -2.254197     -1.137941
  H       7.731026     -1.893784     -0.606523
  H       8.579850      0.428989     -0.242711
  H       7.026168      2.353267     -0.411798
  H       3.615212      2.141804     -0.376223
  H       6.608617      5.810024     -2.975093
  H       5.936694      7.351211     -1.129841
  H       4.534536      6.489104      0.751255
30
Coordinates from ORCA-job Diclofenac\Diclofenac_TPSS_6-311+G\Diclofenac_TPSS_6-311+G.orcainp E -1666.137534817021
  O       3.117001      1.144193     -3.296362
  C       2.967478     -0.133674     -2.888833
  O       2.526556     -0.969908     -3.662009
  C       3.354802     -0.439868     -1.438379
  C       4.818670     -0.165486     -1.114179
  C       5.710326     -1.241058     -0.989088
  C       7.061746     -1.036397     -0.689067
  C       7.535554      0.264727     -0.493500
  C       6.661521      1.351516     -0.597793
  C       5.314498      1.141316     -0.914244
  N       4.379340      2.239208     -1.055970
  C       4.837333      3.582610     -1.059009
  C       5.614242      4.114567     -2.109151
  Cl      6.060673      3.082584     -3.462885
  C       6.022112      5.448297     -2.133426
  C       5.632712      6.306715     -1.102126
  C       4.842275      5.831000     -0.052999
  C       4.469153      4.488005     -0.041122
  Cl      3.483443      3.899967      1.300412
  H       3.531965      1.690377     -2.562706
  H       3.137875     -1.495947     -1.266681
  H       2.689032      0.144693     -0.788263
  H       5.331825     -2.251324     -1.131350
  H       7.734027     -1.886294     -0.603551
  H       8.580612      0.440019     -0.250196
  H       7.023615      2.362478     -0.428345
  H       3.607965      2.139864     -0.389312
  H       6.623360      5.807339     -2.962486
  H       5.939453      7.348482     -1.120258
  H       4.527178      6.485203      0.753368
30
Coordinates from ORCA-job Diclofenac\Diclofenac_TPSS_6-311+G\Diclofenac_TPSS_6-311+G.orcainp E -1666.137557993679
  O       3.117886      1.145157     -3.294259
  C       2.962306     -0.131057     -2.887115
  O       2.505405     -0.963765     -3.655395
  C       3.356647     -0.442912     -1.439591
  C       4.819516     -0.165797     -1.115075
  C       5.712120     -1.240197     -0.986178
  C       7.062866     -1.033491     -0.684506
  C       7.535236      0.268465     -0.491671
  C       6.660212      1.354321     -0.599575
  C       5.314028      1.141827     -0.917118
  N       4.377064      2.238477     -1.066684
  C       4.836444      3.582936     -1.062760
  C       5.614130      4.115536     -2.111892
  Cl      6.060302      3.084513     -3.465833
  C       6.023853      5.448777     -2.133044
  C       5.635577      6.304760     -1.099287
  C       4.845077      5.827826     -0.050988
  C       4.469571      4.485129     -0.041766
  Cl      3.481690      3.896777      1.297170
  H       3.537369      1.689430     -2.560993
  H       3.143415     -1.500585     -1.273087
  H       2.689384      0.135210     -0.784891
  H       5.335068     -2.251292     -1.126474
  H       7.735814     -1.882559     -0.595864
  H       8.579892      0.445343     -0.247761
  H       7.021858      2.365836     -0.432663
  H       3.603699      2.137589     -0.402633
  H       6.625600      5.809514     -2.961013
  H       5.943371      7.346271     -1.115048
  H       4.530939      6.481158      0.756486
30
Coordinates from ORCA-job Diclofenac\Diclofenac_TPSS_6-311+G\Diclofenac_TPSS_6-311+G.orcainp E -1666.137567711508
  O       3.120958      1.126778     -3.311051
  C       2.954837     -0.141897     -2.888417
  O       2.480232     -0.978750     -3.642060
  C       3.357418     -0.445198     -1.441050
  C       4.819213     -0.163461     -1.117324
  C       5.712462     -1.236607     -0.981818
  C       7.062290     -1.027797     -0.677501
  C       7.533153      0.275077     -0.488106
  C       6.657474      1.360052     -0.601998
  C       5.312650      1.145226     -0.922181
  N       4.373711      2.241015     -1.080090
  C       4.835750      3.586055     -1.067523
  C       5.612092      4.121220     -2.116457
  Cl      6.052043      3.094791     -3.475202
  C       6.025307      5.453479     -2.131352
  C       5.642243      6.304055     -1.091070
  C       4.854081      5.823633     -0.042909
  C       4.474026      4.481819     -0.039606
  Cl      3.489961      3.888322      1.298624
  H       3.540207      1.678809     -2.582824
  H       3.147205     -1.502709     -1.269649
  H       2.688495      0.133116     -0.787772
  H       5.336946     -2.248732     -1.118965
  H       7.735615     -1.876059     -0.584136
  H       8.576985      0.453649     -0.241955
  H       7.018914      2.372036     -0.437678
  H       3.598504      2.138492     -0.418255
  H       6.625761      5.818095     -2.958573
  H       5.952962      7.344785     -1.101568
  H       4.544846      6.473908      0.768957
30
Coordinates from ORCA-job Diclofenac\Diclofenac_TPSS_6-311+G\Diclofenac_TPSS_6-311+G.orcainp E -1666.137572303107
  O       3.126382      1.131305     -3.307547
  C       2.954119     -0.137369     -2.886548
  O       2.476936     -0.970707     -3.642307
  C       3.357641     -0.445704     -1.440526
  C       4.819224     -0.163944     -1.116041
  C       5.713107     -1.236731     -0.982144
  C       7.062978     -1.027569     -0.678030
  C       7.533159      0.275401     -0.487506
  C       6.657032      1.360136     -0.600774
  C       5.312296      1.144786     -0.920723
  N       4.373038      2.240079     -1.079990
  C       4.834668      3.584916     -1.068302
  C       5.611442      4.119766     -2.117183
  Cl      6.051862      3.092334     -3.475186
  C       6.024808      5.451899     -2.132402
  C       5.641545      6.302811     -1.092384
  C       4.853134      5.822795     -0.044239
  C       4.472875      4.481099     -0.040810
  Cl      3.489144      3.887223      1.297661
  H       3.546075      1.680780     -2.578213
  H       3.147564     -1.503681     -1.272275
  H       2.688686      0.130818     -0.785615
  H       5.338019     -2.248874     -1.120294
  H       7.736783     -1.875581     -0.585909
  H       8.576923      0.454351     -0.241334
  H       7.018118      2.372236     -0.436378
  H       3.596625      2.137732     -0.419588
  H       6.625529      5.816254     -2.959533
  H       5.952539      7.343455     -1.102977
  H       4.544090      6.473182      0.767585
30
Coordinates from ORCA-job Diclofenac\Diclofenac_TPSS_6-311+G\Diclofenac_TPSS_6-311+G.orcainp E -1666.137573393715
  O       3.127473      1.130561     -3.307582
  C       2.953694     -0.137935     -2.885728
  O       2.475480     -0.970861     -3.641152
  C       3.357566     -0.445693     -1.439815
  C       4.819292     -0.164082     -1.115852
  C       5.713044     -1.237087     -0.982736
  C       7.063114     -1.028321     -0.679226
  C       7.533558      0.274437     -0.488427
  C       6.657602      1.359355     -0.600950
  C       5.312604      1.144540     -0.920487
  N       4.374066      2.240171     -1.078879
  C       4.835215      3.584994     -1.067805
  C       5.612456      4.120003     -2.116312
  Cl      6.053599      3.092845     -3.474306
  C       6.025425      5.452229     -2.131634
  C       5.641153      6.303475     -1.092298
  C       4.851802      5.823659     -0.044789
  C       4.471999      4.481861     -0.041172
  Cl      3.486158      3.888712      1.296134
  H       3.546912      1.680429     -2.578559
  H       3.147003     -1.503445     -1.270781
  H       2.688919      0.131498     -0.785161
  H       5.337748     -2.249125     -1.121055
  H       7.736836     -1.876486     -0.587882
  H       8.577435      0.453136     -0.242522
  H       7.019052      2.371265     -0.436209
  H       3.597204      2.137886     -0.419085
  H       6.626515      5.816584     -2.958495
  H       5.951775      7.344229     -1.103108
  H       4.541639      6.474367      0.766364
