33
Coordinates from ORCA-job Ibuprofen\Ibuprofen_PBE_STO-3G\Ibuprofen_PBE_STO-3G.orcainp E -647.672545118158
  C       2.950210     -0.389000      1.262740
  C       2.520450     -1.278480      0.093380
  C       0.995530     -1.407410      0.076750
  C       3.033050     -0.735040     -1.257200
  C       4.542160     -0.631790     -1.323750
  C       5.344210     -1.773030     -1.210370
  C       6.738460     -1.668380     -1.228430
  C       7.361340     -0.421860     -1.387150
  C       6.552280      0.718750     -1.505690
  C       5.159950      0.614500     -1.474460
  C       8.879980     -0.340920     -1.484840
  C       9.281890      0.247720     -2.841950
  C       9.611730      0.405240     -0.371630
  O       8.877450      0.766000      0.705490
  O      10.811950      0.643840     -0.413180
  H       2.593040     -0.801410      2.212030
  H       2.550000      0.625120      1.157900
  H       4.040240     -0.317770      1.333420
  H       2.933340     -2.279880      0.258260
  H       0.513450     -0.436170     -0.077450
  H       0.634240     -1.816020      1.026560
  H       0.667840     -2.081460     -0.721440
  H       2.583410      0.247560     -1.451140
  H       2.698960     -1.387020     -2.075130
  H       4.888860     -2.754890     -1.103260
  H       7.327480     -2.578870     -1.137920
  H       6.995990      1.704320     -1.635670
  H       4.560540      1.518480     -1.569840
  H       9.275100     -1.364820     -1.437490
  H       8.930760      1.279030     -2.956910
  H       8.863860     -0.344310     -3.663560
  H      10.370780      0.265190     -2.961320
  H       7.938070      0.511290      0.667340
33
Coordinates from ORCA-job Ibuprofen\Ibuprofen_PBE_STO-3G\Ibuprofen_PBE_STO-3G.orcainp E -647.695472507806
  C       2.905642     -0.380898      1.314331
  C       2.470275     -1.285775      0.126305
  C       0.920031     -1.424475      0.090331
  C       3.000219     -0.737334     -1.242445
  C       4.535310     -0.631986     -1.317048
  C       5.350116     -1.787865     -1.218339
  C       6.757100     -1.687180     -1.262194
  C       7.393366     -0.429785     -1.423484
  C       6.576807      0.726433     -1.523293
  C       5.170133      0.625861     -1.470272
  C       8.932095     -0.345869     -1.524563
  C       9.372972      0.255303     -2.895698
  C       9.653784      0.432031     -0.344422
  O       8.860528      0.796012      0.743317
  O      10.883404      0.707263     -0.347424
  H       2.535733     -0.793728      2.272212
  H       2.502586      0.643406      1.201234
  H       4.007876     -0.310796      1.383890
  H       2.897363     -2.300274      0.289744
  H       0.435804     -0.442211     -0.068555
  H       0.544879     -1.840671      1.044745
  H       0.600976     -2.101066     -0.725674
  H       2.550159      0.258563     -1.433323
  H       2.648096     -1.402732     -2.062085
  H       4.884506     -2.783706     -1.107421
  H       7.360306     -2.609902     -1.182494
  H       7.035225      1.723844     -1.651327
  H       4.561720      1.544412     -1.552619
  H       9.327769     -1.386670     -1.472460
  H       9.015471      1.295827     -3.013847
  H       8.972019     -0.343816     -3.735252
  H      10.477346      0.271307     -2.977913
  H       7.886983      0.484984      0.590134
33
Coordinates from ORCA-job Ibuprofen\Ibuprofen_PBE_STO-3G\Ibuprofen_PBE_STO-3G.orcainp E -647.698571525630
  C       2.888697     -0.349097      1.331998
  C       2.467350     -1.277786      0.150248
  C       0.914567     -1.439804      0.100643
  C       2.997554     -0.734884     -1.227350
  C       4.536785     -0.631811     -1.301296
  C       5.351994     -1.795309     -1.224075
  C       6.759756     -1.702114     -1.296831
  C       7.402762     -0.442955     -1.454868
  C       6.587685      0.722064     -1.528266
  C       5.179218      0.627104     -1.451119
  C       8.943411     -0.358728     -1.553687
  C       9.416279      0.268917     -2.907651
  C       9.625670      0.427813     -0.332624
  O       8.775838      0.770831      0.743303
  O      10.854496      0.723688     -0.281764
  H       2.517685     -0.754873      2.292774
  H       2.470586      0.667416      1.200270
  H       3.990720     -0.264952      1.395908
  H       2.913014     -2.283872      0.321466
  H       0.423086     -0.462665     -0.070260
  H       0.538473     -1.853833      1.055878
  H       0.616000     -2.125012     -0.716031
  H       2.552990      0.264135     -1.418893
  H       2.639644     -1.411146     -2.035520
  H       4.880657     -2.788964     -1.113448
  H       7.366628     -2.624276     -1.235409
  H       7.054660      1.716437     -1.651607
  H       4.570324      1.547439     -1.514991
  H       9.342158     -1.398790     -1.501901
  H       9.039445      1.303603     -3.020183
  H       9.050448     -0.331595     -3.762366
  H      10.522774      0.300420     -2.944431
  H       7.835248      0.431111      0.456171
33
Coordinates from ORCA-job Ibuprofen\Ibuprofen_PBE_STO-3G\Ibuprofen_PBE_STO-3G.orcainp E -647.699161832075
  C       2.883210     -0.288884      1.322390
  C       2.478989     -1.260671      0.169976
  C       0.930045     -1.453947      0.122356
  C       2.998770     -0.746830     -1.224376
  C       4.536126     -0.642542     -1.305817
  C       5.352246     -1.806692     -1.238571
  C       6.757983     -1.714378     -1.320841
  C       7.401306     -0.453916     -1.474263
  C       6.584674      0.712101     -1.543257
  C       5.177496      0.616190     -1.458192
  C       8.940434     -0.367263     -1.573510
  C       9.426970      0.315048     -2.894660
  C       9.605408      0.383515     -0.313307
  O       8.728594      0.671884      0.770556
  O      10.826609      0.697379     -0.237828
  H       2.521779     -0.674022      2.294649
  H       2.442228      0.712772      1.158804
  H       3.983187     -0.181268      1.374725
  H       2.946979     -2.251169      0.366749
  H       0.424026     -0.490076     -0.076250
  H       0.561395     -1.848341      1.088249
  H       0.649684     -2.166011     -0.676884
  H       2.554380      0.248062     -1.433150
  H       2.638468     -1.446510     -2.009926
  H       4.879157     -2.799079     -1.126500
  H       7.369872     -2.633437     -1.269240
  H       7.054332      1.704248     -1.671772
  H       4.565371      1.534450     -1.516321
  H       9.341330     -1.406534     -1.553323
  H       9.029519      1.344127     -2.977429
  H       9.089940     -0.266250     -3.773687
  H      10.532797      0.365133     -2.899820
  H       7.813299      0.331421      0.404561
33
Coordinates from ORCA-job Ibuprofen\Ibuprofen_PBE_STO-3G\Ibuprofen_PBE_STO-3G.orcainp E -647.699348808870
  C       2.883733     -0.214268      1.295058
  C       2.493351     -1.239835      0.186183
  C       0.949128     -1.465304      0.153551
  C       2.997515     -0.771572     -1.230074
  C       4.532393     -0.660796     -1.322606
  C       5.353208     -1.821065     -1.255615
  C       6.757306     -1.723034     -1.340909
  C       7.395152     -0.459588     -1.494591
  C       6.572829      0.702663     -1.565297
  C       5.167182      0.600062     -1.479062
  C       8.933348     -0.366260     -1.590270
  C       9.426721      0.378728     -2.873071
  C       9.591969      0.326534     -0.292703
  O       8.712517      0.523003      0.814144
  O      10.806843      0.652290     -0.203293
  H       2.537726     -0.567529      2.284534
  H       2.419100      0.769323      1.093482
  H       3.981406     -0.081200      1.332097
  H       2.983239     -2.211403      0.418717
  H       0.424626     -0.520273     -0.082705
  H       0.592175     -1.826246      1.136489
  H       0.681389     -2.215223     -0.614385
  H       2.546223      0.213059     -1.468577
  H       2.637762     -1.502462     -1.986183
  H       4.883215     -2.814286     -1.140881
  H       7.375823     -2.637347     -1.290345
  H       7.039661      1.695731     -1.693584
  H       4.549511      1.514254     -1.536706
  H       9.336763     -1.404057     -1.614925
  H       9.014461      1.403875     -2.917126
  H       9.111479     -0.170362     -3.780139
  H      10.531409      0.443374     -2.856873
  H       7.807438      0.187726      0.419752
33
Coordinates from ORCA-job Ibuprofen\Ibuprofen_PBE_STO-3G\Ibuprofen_PBE_STO-3G.orcainp E -647.699418680750
  C       2.888507     -0.097843      1.240856
  C       2.517866     -1.205050      0.207266
  C       0.982203     -1.479629      0.207366
  C       2.995098     -0.812481     -1.241238
  C       4.526191     -0.691186     -1.348468
  C       5.353548     -1.845696     -1.285738
  C       6.755681     -1.737673     -1.372484
  C       7.384321     -0.468788     -1.522730
  C       6.553986      0.687705     -1.588266
  C       5.150920      0.574417     -1.501674
  C       8.921100     -0.365741     -1.613770
  C       9.425297      0.473693     -2.830252
  C       9.570285      0.226052     -0.262834
  O       8.684844      0.294098      0.858063
  O      10.763381      0.612485     -0.160615
  H       2.570071     -0.396950      2.256796
  H       2.386941      0.853688      0.982991
  H       3.981803      0.073416      1.248438
  H       3.042047     -2.143221      0.494201
  H       0.426803     -0.569581     -0.087441
  H       0.645458     -1.782882      1.216366
  H       0.732453     -2.288539     -0.504357
  H       2.530283      0.152275     -1.528323
  H       2.638651     -1.591174     -1.948707
  H       4.888372     -2.841166     -1.173669
  H       7.383705     -2.645478     -1.327450
  H       7.016036      1.683760     -1.706288
  H       4.525137      1.482963     -1.554941
  H       9.326876     -1.398330     -1.709815
  H       8.994765      1.491480     -2.813250
  H       9.141798     -0.017697     -3.779606
  H      10.527740      0.554959     -2.781621
  H       7.794434     -0.043375      0.435287
33
Coordinates from ORCA-job Ibuprofen\Ibuprofen_PBE_STO-3G\Ibuprofen_PBE_STO-3G.orcainp E -647.699503013281
  C       2.878460     -0.100023      1.244863
  C       2.511157     -1.206098      0.208598
  C       0.974703     -1.477613      0.203549
  C       2.994858     -0.816757     -1.239541
  C       4.527064     -0.691817     -1.346275
  C       5.356599     -1.844842     -1.284241
  C       6.759472     -1.733898     -1.370085
  C       7.386394     -0.463965     -1.521953
  C       6.553958      0.690906     -1.586403
  C       5.150535      0.575451     -1.498060
  C       8.924243     -0.360921     -1.615156
  C       9.426750      0.473128     -2.835947
  C       9.579671      0.234992     -0.269284
  O       8.708267      0.287734      0.859775
  O      10.778974      0.604829     -0.168649
  H       2.554746     -0.399189      2.259327
  H       2.379990      0.853031      0.985862
  H       3.971211      0.069638      1.259557
  H       3.031951     -2.145493      0.498604
  H       0.421461     -0.567116     -0.094486
  H       0.633212     -1.778883      1.211738
  H       0.725204     -2.287096     -0.507885
  H       2.527414      0.145486     -1.531481
  H       2.641751     -1.597876     -1.946200
  H       4.893343     -2.841552     -1.173392
  H       7.388308     -2.641411     -1.325604
  H       7.013657      1.688249     -1.704005
  H       4.523603      1.483373     -1.552170
  H       9.329191     -1.394462     -1.709124
  H       8.998184      1.491974     -2.822983
  H       9.141561     -0.020942     -3.783551
  H      10.529520      0.554284     -2.790456
  H       7.811188     -0.044613      0.449149
33
Coordinates from ORCA-job Ibuprofen\Ibuprofen_PBE_STO-3G\Ibuprofen_PBE_STO-3G.orcainp E -647.699530095761
  C       2.872249     -0.089311      1.242928
  C       2.509771     -1.202658      0.212511
  C       0.973529     -1.476581      0.206408
  C       2.995414     -0.823826     -1.238114
  C       4.527842     -0.695528     -1.346386
  C       5.359080     -1.847709     -1.288919
  C       6.762197     -1.734523     -1.376829
  C       7.387538     -0.463223     -1.525453
  C       6.553532      0.690627     -1.584785
  C       5.150040      0.573318     -1.494841
  C       8.925715     -0.359428     -1.618405
  C       9.429250      0.479670     -2.835176
  C       9.580674      0.229995     -0.269281
  O       8.713826      0.264277      0.861623
  O      10.776566      0.613176     -0.168969
  H       2.547543     -0.383516      2.258615
  H       2.371637      0.861115      0.978090
  H       3.964347      0.083929      1.259705
  H       3.031360     -2.139442      0.510165
  H       0.419160     -0.569180     -0.099189
  H       0.630300     -1.771049      1.216092
  H       0.726077     -2.291485     -0.499682
  H       2.524521      0.134224     -1.538866
  H       2.644973     -1.611836     -1.938520
  H       4.897347     -2.845482     -1.180223
  H       7.391809     -2.641780     -1.335632
  H       7.011364      1.689187     -1.700270
  H       4.522133      1.480877     -1.545870
  H       9.330064     -1.392974     -1.716694
  H       9.000150      1.498424     -2.819946
  H       9.147179     -0.010579     -3.785781
  H      10.531902      0.562354     -2.787186
  H       7.817510     -0.072555      0.452971
33
Coordinates from ORCA-job Ibuprofen\Ibuprofen_PBE_STO-3G\Ibuprofen_PBE_STO-3G.orcainp E -647.699549166326
  C       2.867724     -0.040885      1.220236
  C       2.516622     -1.187096      0.222205
  C       0.983159     -1.477799      0.225902
  C       2.996255     -0.845859     -1.239715
  C       4.527349     -0.709315     -1.352403
  C       5.362761     -1.858889     -1.305541
  C       6.765522     -1.739450     -1.396457
  C       7.385575     -0.464194     -1.535392
  C       6.547280      0.686725     -1.582658
  C       5.144569      0.563516     -1.491381
  C       8.923281     -0.355347     -1.627593
  C       9.429324      0.511896     -2.822718
  C       9.571050      0.203673     -0.261669
  O       8.713386      0.162136      0.873756
  O      10.754498      0.624304     -0.153204
  H       2.550880     -0.311897      2.244934
  H       2.352860      0.895270      0.932481
  H       3.957821      0.148659      1.228861
  H       3.049054     -2.109403      0.545600
  H       0.418466     -0.585799     -0.105417
  H       0.643788     -1.746073      1.244238
  H       0.743169     -2.315530     -0.455774
  H       2.515841      0.098718     -1.567604
  H       2.652002     -1.657325     -1.915938
  H       4.904832     -2.859246     -1.203437
  H       7.398325     -2.645003     -1.364253
  H       7.000649      1.688393     -1.689829
  H       4.513198      1.469259     -1.533919
  H       9.328833     -1.386321     -1.747961
  H       8.993824      1.527670     -2.790686
  H       9.159421      0.040411     -3.786338
  H      10.531031      0.601714     -2.763512
  H       7.824253     -0.188405      0.459278
33
Coordinates from ORCA-job Ibuprofen\Ibuprofen_PBE_STO-3G\Ibuprofen_PBE_STO-3G.orcainp E -647.699556945609
  C       2.860145     -0.050350      1.227785
  C       2.511614     -1.189938      0.221567
  C       0.977413     -1.476632      0.217001
  C       2.997849     -0.842359     -1.236784
  C       4.529415     -0.706353     -1.347259
  C       5.363948     -1.856832     -1.303528
  C       6.766933     -1.738943     -1.394151
  C       7.388623     -0.464296     -1.530816
  C       6.551280      0.687756     -1.575236
  C       5.148206      0.565991     -1.483407
  C       8.926750     -0.356580     -1.626232
  C       9.428540      0.500847     -2.830158
  C       9.579017      0.214654     -0.267184
  O       8.725609      0.184673      0.871933
  O      10.761253      0.640781     -0.167584
  H       2.537382     -0.326890      2.249138
  H       2.348596      0.888435      0.942850
  H       3.949955      0.137048      1.243202
  H       3.040059     -2.115342      0.542371
  H       0.416616     -0.580925     -0.110787
  H       0.633238     -1.750630      1.232169
  H       0.738149     -2.309208     -0.471135
  H       2.519070      0.103989     -1.561728
  H       2.654363     -1.650235     -1.917606
  H       4.905240     -2.857053     -1.204279
  H       7.398068     -2.645680     -1.364837
  H       7.005331      1.689162     -1.681510
  H       4.518122      1.472652     -1.523752
  H       9.331717     -1.388474     -1.739467
  H       8.993710      1.517043     -2.803987
  H       9.153818      0.021995     -3.788722
  H      10.530519      0.590389     -2.776513
  H       7.836052     -0.170184      0.462735
33
Coordinates from ORCA-job Ibuprofen\Ibuprofen_PBE_STO-3G\Ibuprofen_PBE_STO-3G.orcainp E -647.699561460688
  C       2.857904     -0.048444      1.227300
  C       2.511531     -1.189169      0.221744
  C       0.977603     -1.477142      0.215924
  C       2.998611     -0.842191     -1.236413
  C       4.530060     -0.706226     -1.346595
  C       5.364120     -1.857137     -1.306675
  C       6.767099     -1.739770     -1.396927
  C       7.389324     -0.465082     -1.529410
  C       6.552508      0.687538     -1.569798
  C       5.149422      0.566174     -1.478405
  C       8.927422     -0.356794     -1.625307
  C       9.427431      0.497578     -2.832126
  C       9.579121      0.219567     -0.268417
  O       8.727979      0.184389      0.872990
  O      10.758844      0.652520     -0.171463
  H       2.534901     -0.324888      2.248571
  H       2.344993      0.889252      0.941311
  H       3.947368      0.140770      1.243053
  H       3.040411     -2.113853      0.543788
  H       0.416523     -0.581792     -0.112251
  H       0.632943     -1.751477      1.230810
  H       0.739704     -2.309887     -0.472440
  H       2.520007      0.104054     -1.561859
  H       2.655444     -1.650359     -1.916992
  H       4.905072     -2.857489     -1.210614
  H       7.397557     -2.647032     -1.370402
  H       7.006966      1.689109     -1.672395
  H       4.519924      1.473352     -1.515337
  H       9.333083     -1.388693     -1.735580
  H       8.991362      1.513259     -2.808188
  H       9.151970      0.015558     -3.788858
  H      10.529328      0.588422     -2.779854
  H       7.840064     -0.175608      0.464903
33
Coordinates from ORCA-job Ibuprofen\Ibuprofen_PBE_STO-3G\Ibuprofen_PBE_STO-3G.orcainp E -647.699566454897
  C       2.854100     -0.040594      1.223546
  C       2.512254     -1.186265      0.222130
  C       0.979110     -1.478455      0.215651
  C       2.999766     -0.843302     -1.236739
  C       4.530928     -0.706964     -1.346398
  C       5.364166     -1.858634     -1.316156
  C       6.767258     -1.741789     -1.405102
  C       7.390220     -0.466634     -1.526077
  C       6.554344      0.686945     -1.556652
  C       5.151244      0.565998     -1.466817
  C       8.928149     -0.356547     -1.622652
  C       9.424419      0.491721     -2.835365
  C       9.578253      0.229671     -0.269991
  O       8.734315      0.175691      0.877318
  O      10.750728      0.682162     -0.178931
  H       2.532179     -0.314864      2.245715
  H       2.337073      0.893737      0.934022
  H       3.942786      0.153559      1.238410
  H       3.043300     -2.108232      0.548324
  H       0.416134     -0.585241     -0.114996
  H       0.634485     -1.751422      1.230895
  H       0.744223     -2.313468     -0.470954
  H       2.520780      0.101800     -1.564967
  H       2.657649     -1.653718     -1.915052
  H       4.904535     -2.859490     -1.228607
  H       7.396611     -2.649982     -1.385936
  H       7.009583      1.689082     -1.649981
  H       4.522718      1.474122     -1.495833
  H       9.335496     -1.388402     -1.727058
  H       8.984950      1.506021     -2.816361
  H       9.148464      0.002952     -3.788488
  H      10.526066      0.586277     -2.785412
  H       7.850314     -0.197221      0.472604
33
Coordinates from ORCA-job Ibuprofen\Ibuprofen_PBE_STO-3G\Ibuprofen_PBE_STO-3G.orcainp E -647.699567091645
  C       2.854194     -0.041346      1.223738
  C       2.512239     -1.186385      0.221584
  C       0.979100     -1.478643      0.215124
  C       2.999690     -0.842428     -1.237119
  C       4.530947     -0.706439     -1.346514
  C       5.363794     -1.858407     -1.318186
  C       6.766997     -1.741839     -1.406511
  C       7.390294     -0.466688     -1.525008
  C       6.554835      0.687245     -1.553686
  C       5.151678      0.566604     -1.464462
  C       8.928246     -0.356477     -1.621247
  C       9.424151      0.488274     -2.836672
  C       9.577829      0.233712     -0.270416
  O       8.735064      0.178507      0.877720
  O      10.749084      0.689684     -0.180795
  H       2.532473     -0.316209      2.245814
  H       2.337129      0.893166      0.934862
  H       3.942883      0.152763      1.238566
  H       3.043373     -2.108538      0.547125
  H       0.415982     -0.585267     -0.114853
  H       0.634616     -1.752317      1.230232
  H       0.744169     -2.313248     -0.471973
  H       2.520953      0.103091     -1.564510
  H       2.657387     -1.652183     -1.916114
  H       4.903807     -2.859268     -1.232595
  H       7.396127     -2.650216     -1.388705
  H       7.010576      1.689363     -1.644939
  H       4.523434      1.474965     -1.492084
  H       9.335895     -1.388550     -1.722595
  H       8.984086      1.502384     -2.820631
  H       9.148309     -0.003565     -3.788258
  H      10.525762      0.583578     -2.787163
  H       7.851493     -0.196816      0.474364
33
Coordinates from ORCA-job Ibuprofen\Ibuprofen_PBE_STO-3G\Ibuprofen_PBE_STO-3G.orcainp E -647.699567501712
  C       2.855154     -0.043335      1.224287
  C       2.512225     -1.186916      0.220737
  C       0.979019     -1.478788      0.214656
  C       2.999322     -0.841120     -1.237737
  C       4.530744     -0.705663     -1.346760
  C       5.363227     -1.857876     -1.319002
  C       6.766546     -1.741499     -1.406703
  C       7.390080     -0.466374     -1.523982
  C       6.554959      0.687814     -1.552254
  C       5.151774      0.567428     -1.463619
  C       8.928062     -0.356362     -1.619920
  C       9.424054      0.485216     -2.837600
  C       9.577522      0.236677     -0.270590
  O       8.735352      0.182422      0.877814
  O      10.748475      0.693816     -0.181826
  H       2.533540     -0.319090      2.246166
  H       2.338788      0.891958      0.936673
  H       3.944027      0.149766      1.239110
  H       3.043321     -2.109642      0.544758
  H       0.415852     -0.585068     -0.114340
  H       0.634832     -1.753268      1.229659
  H       0.743594     -2.312775     -0.473042
  H       2.520968      0.105095     -1.563664
  H       2.656603     -1.649759     -1.917860
  H       4.902856     -2.858657     -1.234371
  H       7.395726     -2.649868     -1.389337
  H       7.011261      1.689757     -1.642662
  H       4.523602      1.475848     -1.491018
  H       9.335719     -1.388711     -1.718761
  H       8.983540      1.499187     -2.824406
  H       9.148734     -0.009325     -3.787939
  H      10.525627      0.581099     -2.788049
  H       7.851494     -0.193478      0.475675
