# avogadro generated ORCA input file 
# Basic Mode
# 
!B3LYP STO-3G Opt CPCM(WATER) D4

* xyz 0 1
  C          11.56220823916106      4.27182826242787     -2.58484479716517
  C          10.44328174038465      4.15593433836745     -1.50757134656114
  O          10.91133709697243      3.17969900730403     -0.51046028524233
  C           9.80183000710514      2.89751572975688      0.42142174115654
  O          10.43072217511328      1.86956944673112      1.27497226987517
  C           9.37697582051333      0.93051454588704      1.68905850773075
  C           8.72662054188539      0.04327908648333      0.55836488729852
  O           8.04553980761028      0.77081208378771     -0.50672831706936
  C           7.61264069040427     -0.76386094012763      1.31567305350767
  N           6.68678268530087     -1.29975999371598      0.26266897100468
  C           8.25518440214319     -1.69845205347857      2.39895017795073
  O           7.11848867428297     -2.32791945236235      3.20327639518082
  C           7.12178861607169     -2.11788021496831      4.71291488602108
  C           8.47473650949327     -2.64322974009793      5.36623769724858
  C           8.75331553856667     -1.95507089182856      6.74582459804581
  O           8.64626753883842     -4.11382282748360      5.34232195542379
  C           7.47457082690577     -4.82550011199992      5.86596225777460
  O           7.21461329851812     -4.55436514475258      7.28733828327897
  C           7.89074283077549     -5.54786772887366      8.16170004122926
  C           9.05164595638968     -6.41542882613410      7.49981140066551
  O           8.43556648370650     -7.31651459726396      6.51353696668938
  C           9.68123788458726     -7.17411273110201      8.71112166739773
  N          10.94083534720609     -8.03066645370844      8.55808151898901
  C          10.19892667238348     -6.11224935814547      9.77706087462334
  O          11.09155887038868     -6.90453866107829     10.66877194544453
  O           9.08913063325860     -5.48538947773541     10.46119450261442
  C           8.42568723582882     -4.67597440803067      9.39427716156357
  C           7.23966549430418     -3.87401047512093     10.03007413244608
  O           7.68651922495998     -2.70360772347841     10.77353536064353
  C           7.39888656389372     -1.50676587858080      9.87420511819184
  C           7.81060691337091     -0.31750905284881     10.43275603363012
  O           6.81708860325580     -1.77687316569592      8.73300862720436
  C           6.18473093261357     -4.43442385970829      5.04731844325131
  N           6.54437574003545     -4.67390240063350      3.55555764353242
  C           5.82454688017574     -2.91362531877470      5.13137448965373
  C           5.17837763996190     -2.46769097896096      6.47298140826501
  O           9.00753285795943     -0.90504849005435      3.37780921174799
  C          10.03581851967262     -0.07872655968893      2.70532232941082
  C          10.77535094678806      0.67267314835756      3.87597589284721
  O          12.10211107320774      1.16596993006653      3.43902731074094
  C          13.08205192171224      0.12735885208055      3.51813834410962
  C          14.44933471340129      0.69946372867788      3.03483416982121
  O          12.84093112963592     -1.03181391800475      3.92258118214688
  C           9.37112915753096      4.19104910471820      1.25903887616069
  N           8.16938591290694      3.84780301545222      2.13000782947850
  C           8.98796343682790      5.34746245442368      0.25943133596149
  C           8.67718614814524      6.69338364646520      0.98262752777920
  C          10.14396619475136      5.53655691488444     -0.79051743518581
  O           9.70577963588722      6.49082611376308     -1.84318564802338
  C          10.37567475801615      7.77058092568501     -1.70657026011776
  O           9.39628109805647      8.80836588570329     -2.20316320863396
  C           9.10856655640135      8.62005489646368     -3.67070648818612
  C           8.52826316221567      7.22591742689057     -4.10405027726949
  O           7.82234497774699      7.38061514466542     -5.40834242189149
  C           8.62501305532596      7.25897068356751     -6.55832196076921
  C           7.73493056220834      7.47106097718653     -7.81442900956774
  O           9.87039962290821      7.02228869327080     -6.61638308798385
  C          10.50672827560648      9.00703549210439     -4.29865070951464
  O          10.88093243413121     10.20392808840292     -3.46310531627318
  C          11.55163827875749      7.81384667112904     -4.05653878039386
  O          11.10498954543758      6.50551495972690     -4.49887281955749
  C          11.77314483605273      7.77081684156528     -2.49481429065054
  N          12.55621874965525      9.05150172716446     -2.18286823819089
  H          11.67505802243932      3.30788422952293     -3.10314703514255
  H          12.51949159842317      4.51923621495774     -2.10070660634616
  H          11.31677289331727      5.06065080666159     -3.32651798029425
  H           9.49366390960890      3.81595050213199     -1.98663965991931
  H           8.90776401307183      2.46783466186298     -0.11649894202554
  H           8.55465153628494      1.45962510799633      2.21722045599970
  H           9.51800813272201     -0.63530083210060      0.14552796298971
  H           6.03286517784490      3.12178656699023      0.73656643895796
  H           7.00574219616902      0.01173236399473      1.95465417475805
  H           5.74877628458083     -1.49136456313467      0.76954937734538
  H           7.23370817315030      0.10301331664862     -0.58840317540082
  H           8.85094516370335     -2.56239008363426      1.99356039403105
  H           7.01519471244627     -1.03014428358285      4.90467751208790
  H           9.26341642071530     -2.28228334900085      4.66856277024494
  H           7.91463838779050     -1.97579339230392      7.50767440098530
  H           9.00473442051599     -0.90299248654108      6.53403625211912
  H           9.64832982076125     -2.42672608102273      7.18059247713566
  H           7.71692214522960     -5.92005165156988      5.72445035950980
  H           7.12689720868737     -6.27356414091399      8.53152515646040
  H           9.81296159614864     -5.74330309291531      7.03834674475441
  H           9.24736025044147     -7.65669994149601      5.98833335477304
  H           8.92478692385594     -7.83068046554800      9.18480580193948
  H          11.59044746071124     -7.68142064533549      7.80351166911112
  H          10.73419097734544     -9.04946154737572      8.38727040365729
  H          10.88232296782576     -5.38150997731721      9.26981786400152
  H          10.45029076827027     -7.37972329380290     11.31198256376403
  H           9.16273114155487     -3.95017059283741      8.97845405659468
  H           6.61694464419301     -4.54698890297829     10.65471061122897
  H           6.68743990966835     -3.39496130959568      9.15930593825456
  H           7.67416179688833      0.62541031681625      9.90749548051869
  H           7.01564728858664      3.25317834402424      9.91665082605978
  H           8.27681328552639     -0.28257010300656     11.41504194355031
  H           5.32985026364172     -5.08346057650011      5.31815045855048
  H           6.94723705942814     -3.63581677398249      3.18160522911162
  H           5.68500168421637     -4.94279170593984      3.00701520011123
  H           5.06731244981188     -2.73263079241816      4.34400494990965
  H           5.88611368686067     -2.39817824852813      7.32232285965470
  H           4.37025154665185     -3.17172372969822      6.72278411424413
  H           4.73547760593453     -1.47079400135557      6.32072601405925
  H          10.76085923804298     -0.73110930577287      2.16261307957705
  H          10.88395654094965     -0.02721555995467      4.73213372231313
  H          10.18078255457752      1.57634517548191      4.17281649775437
  H          14.75821584605014      1.53710529131885      3.68042012558426
  H          14.35757371963197      1.07027613300915      2.00140271857276
  H          15.21447021723169     -0.09059264336285      3.07288348127988
  H          10.25575606713344      4.51646056974225      1.85335211304121
  H           7.85334352114344      4.78557587078628      2.50663405121089
  H           8.54863315441432      3.36754454417459      3.03270724657009
  H           8.08746573077271      5.02969047334481     -0.29950622217559
  H           9.55453977891580      7.04189072150149      1.54884828196927
  H           7.83161795181956      6.58558862477629      1.67837962882068
  H           8.40515129125399      7.46093469073358      0.24222195304589
  H          11.06705680226212      5.88633883468595     -0.28074480879493
  H          10.56547033450657      8.07621578695356     -0.64683678800237
  H           8.36764008919665      9.41966709326290     -3.88984795393906
  H           9.39407767752678      6.51268849672576     -4.14243511387215
  H           7.74717257032849      6.90744555527760     -3.38683363181265
  H           6.91470901206028      6.73498816720243     -7.81719911706416
  H           8.34882601711170      7.34725799566680     -8.71844323580271
  H           7.30150675145352      8.48437542680634     -7.79572029436872
  H          10.44746205148079      9.30538198463567     -5.36502135826077
  H          10.20413433694577      9.96704916075319     -2.65447784066580
  H          12.51758525622935      8.11023834307688     -4.53590708596296
  H          10.71164888901911      6.69355246227626     -5.46281462763659
  H          12.35035195614921      6.87999351566307     -2.18147904150614
  H          11.87791445325242      9.85215722343070     -2.85668145564779
  H          13.55163430656429      8.94934718271217     -2.51353309659075
  H           7.04142921652301     -2.24291344909615     -0.05906909174004
  H          11.33166453743199     -7.76984132791288      9.64502060510820
  H           7.24757438074275     -5.45265615336748      3.44768458527417
  H           6.64440063886361      3.30411612023284      1.12534850438279
  H          12.58807358141784      9.24162979652429     -1.14640057608768
  C           4.89257291585001      0.80672370742138      4.88752535347320
  C           6.19288620154637      1.46579422687275      4.57429798511229
  C           6.91743931012284      2.14624234525459      5.51331190654280
  C           6.38689293520897      2.24202241888551      6.93324828266583
  C           5.16000308733995      1.63885618364639      7.08078394346166
  C           4.47858109684737      0.98408212274458      6.19016338055300
  C           8.31949326499408      2.81188583547439      5.48623833476641
  O           9.08061586458016      2.93117393588778      4.45315565513641
  C           8.56617029807063      3.23087568001911      6.86864245164377
  C           7.42958419411649      2.91982846120033      7.73225687124306
  C           7.68514911427865      3.34768336491194      9.05509861612522
  C           8.99753780111118      3.93361555353593      9.01988249462081
  C          10.33895824208657      4.48431362533432      8.78073451826377
  C           9.54286986946177      3.86761829637274      7.69065869151548
  C           4.91210304372110      0.18370430282510      3.50587143859180
  C           6.11094534851291      0.81048908872239      3.10716724567040
  C           4.06061442667287     -0.80136923086021      2.75440614315172
  O           2.80716894265913     -0.82075112864226      2.63851190455841
  O           4.82971761520143     -1.82445761262885      2.06969467901189
  H           5.72637275424734     -1.88726023416454      2.60179210247356
*

