155
Coordinates from ORCA-job .\Complejo_CMCDexketoprofen E -4049.968234114974
  C          11.61038620323250      4.31275703813933     -2.54200595111451
  C          10.47498491725523      4.17814014458033     -1.48411942551863
  O          10.94286368458865      3.21217309663323     -0.47669261760294
  C           9.82497459844058      2.91995873472285      0.44230686934320
  O          10.45015456446707      1.89207661844914      1.29835912606038
  C           9.39566991235227      0.95029841902669      1.70440722008991
  C           8.74541612834771      0.06883430121484      0.56871903266644
  O           8.06711300260209      0.80050015639660     -0.49532538748879
  C           7.62859782099332     -0.73785416968981      1.32242121783098
  N           6.70144051513253     -1.26673592503914      0.26661328234478
  C           8.26591265983413     -1.67836094957567      2.40330523417972
  O           7.12473329839154     -2.30192280346433      3.20601465310742
  C           7.13263893299148     -2.09833554532239      4.71607203255454
  C           8.48155416296988     -2.63892892321042      5.36544021680251
  C           8.76920172013117     -1.95830305684071      6.74683498958654
  O           8.63946696684311     -4.11086924821508      5.33601570159770
  C           7.46187411382739     -4.81468051978474      5.85679651667924
  O           7.20461285139075     -4.54877204990978      7.27941440819027
  C           7.86493056197360     -5.55703378263423      8.14921193468881
  C           9.01128825728317     -6.44104600527613      7.48374792016563
  O           8.38176613385760     -7.32497820764316      6.49045542511968
  C           9.62580180563537     -7.21670069374932      8.69217727782176
  N          10.86862565113707     -8.09676758274654      8.53553772776242
  C          10.16437917805315     -6.16721664346059      9.75948438772119
  O          11.04543680654123     -6.97694625023323     10.64669739318229
  O           9.06672390155211     -5.52387265970921     10.44794154877966
  C           8.41480813481871     -4.69983400484942      9.38520618409671
  C           7.24285415198185     -3.88273012324173     10.02821186238103
  O           7.71187871990830     -2.72518139631519     10.77722597961794
  C           7.44045023120192     -1.51711690000757      9.88626709621371
  C           7.88161660980533     -0.34139486610041     10.45121878809409
  O           6.84547827917194     -1.76850565089089      8.74835260640754
  C           6.17448390034832     -4.40783881223683      5.04145821989630
  N           6.52947736006258     -4.64384387325880      3.54829455952688
  C           5.82931594993146     -2.88385214716828      5.13433538919747
  C           5.19505492357996     -2.43866434025095      6.48172553579752
  O           9.02284243327398     -0.89257559470645      3.38447660529011
  C          10.05281097533814     -0.06620617136364      2.71453279606340
  C          10.79752435896826      0.67619337057196      3.88766440779147
  O          12.12679810905519      1.16239679230325      3.45152836168404
  C          13.09772583163395      0.11491488706274      3.51886128083639
  C          14.46763082298627      0.67774341408223      3.03164841865424
  O          12.84855222717634     -1.04498264479613      3.91673971754825
  C           9.38133112988113      4.21263324872086      1.27408356843987
  N           8.18696893534509      3.86406394004827      2.15235459111709
  C           8.97984413709633      5.35366432660061      0.26326683324700
  C           8.63506843227790      6.69843695917031      0.97264712887822
  C          10.13772032496187      5.55770455714955     -0.78177994126086
  O           9.68569994989574      6.48590605060101     -1.85181822525315
  C          10.30625710203577      7.79060484875785     -1.71660634027678
  O           9.30004894107003      8.78473107725809     -2.24640232728142
  C           9.05238925608486      8.56900546291712     -3.71712623574127
  C           8.53115128572773      7.15073051746279     -4.14549041954946
  O           7.84466026159298      7.26549380879281     -5.46413683923041
  C           8.67442579771200      7.15799335293912     -6.59674699386894
  C           7.80191051471037      7.31710093452692     -7.87284185720314
  O           9.92842656562300      6.96763174661357     -6.62638430394502
  C          10.44834043206219      9.00109830074811     -4.31968766137878
  O          10.75924932191572     10.22107130985408     -3.49134533560271
  C          11.53230346463965      7.85148654059191     -4.04169072111657
  O          11.14544142469719      6.52326568549405     -4.48039172173206
  C          11.71995844867442      7.83353326019633     -2.47528154475855
  N          12.44721576168638      9.14613204194931     -2.16129968100911
  H          11.75366626302161      3.34865576927183     -3.05281039805455
  H          12.55320355626461      4.58451280645309     -2.04244720161467
  H          11.36105872133066      5.09210616773122     -3.29223292576292
  H           9.54054695928576      3.81945057135063     -1.97899472635112
  H           8.93812210579944      2.48731110085419     -0.10524689359202
  H           8.57300883246931      1.47638384107658      2.23517142557922
  H           9.53591370358984     -0.61040641722425      0.15472315301615
  H           6.04473080601324      3.17807128128978      0.75003259183110
  H           7.02322145859446      0.03798937449022      1.96278345687140
  H           5.76234904524097     -1.45580309577512      0.77213581936731
  H           7.25284681077131      0.13545578185827     -0.57892488474383
  H           8.85604945084084     -2.54517718390888      1.99580440305136
  H           7.03614010029650     -1.01041586338480      4.91261445245018
  H           9.27231144609598     -2.28351847343717      4.66814890435665
  H           7.93343298221593     -1.97466730231969      7.51146972068920
  H           9.02815764026787     -0.90768373008075      6.53830234061766
  H           9.66178674697566     -2.43880573106647      7.17710937660004
  H           7.69266439143602     -5.91072471193737      5.70956715873441
  H           7.08891425357625     -6.27102159306606      8.51637034833345
  H           9.78561584542709     -5.78014185323570      7.02811709048530
  H           9.18925157278330     -7.67804563724083      5.96678176528029
  H           8.85694751780764     -7.85942825164463      9.16491809492738
  H          11.52310800748970     -7.75918823919909      7.77955577541388
  H          10.64231002453378     -9.11113963540870      8.36425460773376
  H          10.85864412986551     -5.44702652709034      9.25252229000880
  H          10.39838766623471     -7.44111929710540     11.29220307848058
  H           9.16239769093465     -3.98325598073205      8.97184055237768
  H           6.61147373702509     -4.54964908215232     10.65116127680426
  H           6.69369809176814     -3.39027255250918      9.16321680244201
  H           7.76445640835450      0.60910942040695      9.93436735453030
  H           7.05343748430383      3.23801383093919      9.93325250092608
  H           8.35775889400499     -0.32573646114036     11.42949260874558
  H           5.31376444108001     -5.05029615336856      5.31092885217217
  H           6.94083706072501     -3.60731964938172      3.17848522751936
  H           5.66784545523331     -4.90481900339047      2.99964067776106
  H           5.07058107679405     -2.69023279003258      4.35160151462004
  H           5.90674401038788     -2.39003182471426      7.32854380440518
  H           4.37517158469038     -3.12990767769196      6.72850295659901
  H           4.77003885447036     -1.43259638150774      6.34005391490120
  H          10.77439667580892     -0.71844359250058      2.16700753832123
  H          10.90216856554825     -0.02721860945789      4.74135547480433
  H          10.20874792908111      1.58236376388901      4.18854403179271
  H          14.77265155204253      1.52924999054093      3.66110650064590
  H          14.38244937489662      1.02604169594002      1.98956360829094
  H          15.23209168799839     -0.11118405970207      3.09044440899906
  H          10.26431500947162      4.55471128628171      1.86142396272489
  H           7.87371168633296      4.79955033530918      2.53642011052469
  H           8.57179297945192      3.37956660954569      3.04973092858759
  H           8.08968978538533      5.01204802529146     -0.29798329144337
  H           9.50215461550823      7.07450764931709      1.53738975330689
  H           7.79089488840599      6.57584086328926      1.66726236669082
  H           8.34511755349730      7.45205886805102      0.22515413517915
  H          11.04872728873785      5.93649007610622     -0.27095942707894
  H          10.46268959870873      8.11563583768137     -0.65709613285033
  H           8.28711028706180      9.33823732210656     -3.96205422687064
  H           9.41999088919392      6.46705885117397     -4.15973021917312
  H           7.74869489933568      6.81263409826263     -3.43860803226044
  H           7.00006690302962      6.56080668284099     -7.87151026527231
  H           8.43467975820370      7.18739855668670     -8.76330087877796
  H           7.34356665710095      8.31980053053283     -7.88612949710050
  H          10.40125425211642      9.28503199885804     -5.39045583094092
  H          10.07401870555205      9.96913158518208     -2.69482187098634
  H          12.49696997267382      8.18053392853068     -4.50226047004292
  H          10.76130828079238      6.68758888763515     -5.45204055206445
  H          12.32298509779817      6.96841366844687     -2.13855477750925
  H          11.75511224395239      9.91297072287027     -2.85961111350842
  H          13.45308841861781      9.07758472695150     -2.46735116592541
  H           7.05242714705763     -2.21045447484063     -0.05838186654591
  H          11.26662743786496     -7.84517335336382      9.62168251789040
  H           7.22679683538064     -5.42702843806161      3.43659174158746
  H           6.65665452801735      3.33819973956718      1.14779154098164
  H          12.44692425892723      9.34878545196377     -1.12662588717417
  C           4.91308408082425      0.83326869922426      4.89613499790515
  C           6.21664045046862      1.48597176661467      4.58428760033834
  C           6.94618905479797      2.15720807744603      5.52574352786867
  C           6.41768210914066      2.24863104006758      6.94720457049858
  C           5.18777855278963      1.65258434476242      7.09296462077883
  C           4.50114400455286      1.00631189077761      6.20056940626587
  C           8.35196718091466      2.81557156588055      5.50097352818683
  O           9.11157351006844      2.93819971727554      4.46723109909047
  C           8.60360566273548      3.22438464781780      6.88594756105083
  C           7.46544620329577      2.91545486117034      7.74875328438286
  C           7.72500770250273      3.33328842522558      9.07327554261058
  C           9.04093581181821      3.91160423553140      9.04141020877025
  C          10.38535007616833      4.45574128546721      8.80370440286295
  C           9.58490117456435      3.84985798737446      7.71102381610642
  C           4.92768620978551      0.21568849982241      3.51152070400039
  C           6.12974748736887      0.83719643272116      3.11442393857022
  C           4.07277874787227     -0.76269833941879      2.75549901158490
  O           2.81967382558825     -0.77537793559677      2.63495882623051
  O           4.83923956193394     -1.78753309649686      2.07041942221124
  H           5.73483514446736     -1.85394557845654      2.60404343223950
