151
Coordinates from ORCA-job C:\Users\oestr\OneDrive\Escritorio\Tareas\Tesis\Prototipo\Complejos/CMC-Ibuprofen\CMC-Ibuprofen-OrcaFiles\Complejo_CMCIbuprofen E -3862.880358365139
  C          13.33516324661970      4.90556231957804     -1.68935950983607
  C          11.95878764886311      4.67942282941510     -1.00327113299115
  O          12.22200631095104      4.73834304173211      0.44791780037233
  C          10.94242313811126      4.50022073188138      1.13305534361463
  O          11.32208111468548      4.34416222471151      2.55062407616505
  C          10.31496881805548      3.45425193360068      3.18081144448689
  C          10.56375609235502      1.94581544940580      2.83635325949207
  O          10.32374101593395      1.60703364094468      1.43236665218695
  C           9.59933381761165      1.04467194780774      3.69103648454569
  N           9.88979418291444     -0.34441540757671      3.16762513335079
  C           9.83136448351244      1.33149306925268      5.22862451765545
  O           8.69688585510787      0.74917834113864      6.01016191191887
  C           8.96184238409919     -0.39700911538863      6.94778606569966
  C           9.77388403894275     -1.54530191068644      6.24241604839909
  C          10.22178685835367     -2.68327489524419      7.21429855113734
  O           9.03131777636429     -2.05072140737341      5.05620835094031
  C           7.66435264700486     -2.48989892951632      5.35903575884123
  O           7.69390927128972     -3.72045079124435      6.19054650256794
  C           6.75238334170205     -4.70009546524855      5.61567650758121
  C           7.11572880994497     -5.09633275971681      4.11146173204852
  O           6.66204772598472     -3.98594583868697      3.26145315170860
  C           6.33572293551745     -6.42322560281630      3.84828705823803
  N           6.56045969970968     -7.24956804802371      2.57916210917955
  C           6.75106754875228     -7.49175551930447      4.95002048399966
  O           6.28294468673340     -8.78973871169794      4.39734736655281
  O           6.15194741623849     -7.16031383482258      6.22892214105739
  C           6.84617387061007     -5.91408721595388      6.64588977710033
  C           6.18786372444607     -5.48354421947293      8.00746977400006
  O           6.74581705066092     -6.23434660778378      9.15316286504811
  C           7.97473446615207     -5.63753981496555      9.58493693424609
  C           8.53462006564619     -6.45814714937218     10.78307095202319
  O           8.47497488388480     -4.61774155892334      9.05896517897324
  C           6.79521843508824     -1.38837238788952      6.09950095535606
  N           6.66159292513132     -0.19714066112003      5.13128928129920
  C           7.49408222004078     -0.79308982682866      7.37384524628631
  C           7.39708509296166     -1.71338066097658      8.62224392228938
  O           9.60954353100003      2.75537321587248      5.54985831287594
  C          10.49058084425471      3.62779523953629      4.74726894753466
  C          10.05871927784707      5.07438365503560      5.21827812231175
  O          10.37827949955347      6.15013466137134      4.24913999988475
  C          11.81338933755873      6.31667676423988      4.14573855218383
  C          12.14423999143688      7.43804951808832      3.11872769818945
  O          12.61595453162140      5.67671814642557      4.85455350113876
  C          10.03049884311783      5.77209995730679      0.87703098629570
  N           8.90839388940548      5.83566085740204      1.90161375361933
  C           9.53719925427708      5.68829308653532     -0.61199505930560
  C           8.53604745524725      6.83832472208150     -0.93224835312726
  C          10.85044993637265      5.71832389513208     -1.50666670466149
  O          10.68375983662457      5.27570479761226     -2.92394658748843
  C           9.92011441956607      6.20228380526744     -3.70660042260503
  O           8.43081974433122      5.84076182147342     -3.64801764620783
  C           8.19339136906617      4.50426752160761     -4.29176607337445
  C           8.94697480012681      3.28579150231026     -3.62485107054177
  O           8.16503442164435      2.04200054180023     -3.91731358487603
  C           8.39205746894657      1.45658800707494     -5.16565191151080
  C           7.52946750803705      0.17294350205494     -5.30170859927938
  O           9.16170494832658      1.86802666900131     -6.09338474357212
  C           8.42045631896026      4.88488145262527     -5.81683221539705
  O           7.79173052998584      6.25137734658227     -5.88899286356143
  C           9.97416130885614      5.00154051125246     -6.10374335300704
  O          10.65914728802204      3.78447413563649     -5.79532591509014
  C          10.48565599928147      6.20586614853282     -5.20276852884003
  N           9.90179430206767      7.42379475402026     -5.93205986031921
  H          14.00383828826589      3.98768567027681     -1.46167329658883
  H          13.78591382920382      5.83725547359751     -1.31309435326966
  H          13.18413721834012      4.99775650711464     -2.77452553942695
  H          11.56896116931748      3.67061538644245     -1.28842652365650
  H          10.44206374814111      3.56342457068401      0.76435614290290
  H           9.28301640047544      3.74447853733873      2.88911151506772
  H          11.61084967945915      1.69764334494088      3.13838909286293
  H           6.84506647716641      4.13639866063144      1.66323701979669
  H           8.55073231711420      1.30993734779899      3.44253822638473
  H           9.34257041240960     -1.04427728978509      3.77824571882191
  H          10.10033856441851      0.59923273197477      1.59808448026554
  H          10.84200531963216      0.87042062475027      5.54574689228919
  H           9.54143644608325     -0.00785693744306      7.81324112401739
  H          10.76316494587520     -1.07140373662783      5.84461807885617
  H           9.40173322164677     -3.34764129725152      7.52221354767562
  H          10.67831515950680     -2.23260309415905      8.10901512538009
  H          10.98807804875146     -3.29037627719473      6.70822870320665
  H           7.21075542573403     -2.74666060184499      4.35338253026795
  H           5.70728565906210     -4.30896096259293      5.60088218148222
  H           8.21131180203791     -5.28287897731469      4.02434207955291
  H           7.21691840590639     -4.11021773501232      2.40976742078076
  H           5.24355047113995     -6.24300677024279      3.90628415704352
  H           7.53977346563857     -7.16142779047459      2.19538062802126
  H           5.87095703467682     -7.03093051369097      1.81311566440831
  H           7.86791776703148     -7.58050592949859      4.99129065426551
  H           5.28204231107590     -8.81681532029082      4.61985939112339
  H           7.93149459164717     -6.12023519179951      6.80369971208357
  H           5.10347654098264     -5.71381583149970      7.97733203754468
  H           6.34056401368812     -4.39294549894456      8.13861169145897
  H           7.81768481409919     -6.43855264780242     11.61999927140388
  H           9.49045579341115     -6.02290804057647     11.11054327845406
  H           8.69267424069452     -7.50603526952424     10.48074235100284
  H           5.79164467152621     -1.79966289959492      6.32672265591711
  H           7.68285280402199      0.41101863983322      5.38011626849991
  H           5.81243664726502      0.37762211603019      5.37400591816924
  H           6.97215265238346      0.15261356095261      7.61995464776322
  H           7.75273804997952     -2.73596295732207      8.42855512392132
  H           6.34484198662842     -1.76519042914250      8.94133983423433
  H           7.98842986809513     -1.28060681263177      9.44336016729798
  H          11.56496979914463      3.45685968814948      4.99180534655779
  H          10.52158347274626      5.29721080422793      6.20259008426254
  H           8.95470836685466      5.09573979845202      5.32001491361417
  H          11.23616365311945      7.99892557984430      2.85342020830831
  H          12.57487262489607      6.98806310497931      2.20896912501561
  H          12.88633643847817      8.12415690987231      3.55724284539609
  H          10.69301226707907      6.66055726824095      0.95433858877180
  H           8.47116124506751      6.78855168021269      1.74968313190121
  H           9.43867325783717      5.97455414557301      2.82706596631283
  H           9.03018840239719      4.71622379158126     -0.76029048452554
  H           9.03395686926200      7.81757488060028     -0.86522999601127
  H           7.70264364031683      6.81648687850326     -0.21587608959200
  H           8.12282931335575      6.70280111537516     -1.94196014588935
  H          11.26111364728029      6.75384022440028     -1.49286853369682
  H           9.93312116698068      7.25040882120728     -3.31686681586112
  H           7.10366525720860      4.33715312746598     -4.13805552079647
  H          10.05842951994200      3.14553099745710     -3.84378935722707
  H           8.81869749883651      3.40563765198507     -2.52959704047531
  H           7.86381637982560     -0.57509483327476     -4.56355743745112
  H           7.64204706991909     -0.23381372217865     -6.31759656389975
  H           6.47126122121441      0.41347573376964     -5.10898305417137
  H           7.91045376826476      4.20004552271025     -6.52468015276584
  H           7.81136189983477      6.40943479871548     -4.81017659365954
  H          10.11838288493150      5.31099322060983     -7.17000090474662
  H          10.00705999389195      2.95903756333595     -5.96695519251617
  H          11.59274961560344      6.25411332538316     -5.15756689872427
  H           8.72873194370016      6.98986664764891     -6.10487763418014
  H          10.43304642951442      7.58676800626185     -6.82721975850172
  H          10.89311943004838     -0.50870528474061      3.49034732010352
  H           6.38772374098351     -8.27697222435437      3.12907802884816
  H           6.55220712665988     -0.51599204143421      4.13271195903237
  H           7.43100035822509      4.58967817093465      1.73681647415884
  H           9.98670450282141      8.30050038487712     -5.35297489928989
  C          14.26368131770710      0.54800251395568      0.51467086776217
  C          14.14955811722465     -0.36323339563364     -0.60756543660418
  C          14.24792262105574      0.04030961151616     -1.86951257480975
  C          14.49684090404965      1.44407403827948     -2.19679055712353
  C          14.68285720797991      2.37301444991084     -1.05892005884291
  C          14.57692566539878      1.92088787126659      0.20848741486938
  C          14.09798926189684      2.06178735443197     -3.61422761253500
  C          15.39469022180296      1.83409569002453     -3.72883611657290
  C          12.80052984581449      2.60482022664707     -4.12178724522894
  O          11.65515349296947      2.46325560020297     -3.57041072684847
  O          13.00145633703260      3.31498980748239     -5.30693377563591
  H          12.00664255083260      3.60230133229274     -5.58252096356067
  C          13.92842483745534      0.15544582642551      1.88537975044749
  C          12.88412484472734     -0.24757896593608      4.24232241897318
  C          13.50544616229296     -0.06343186483213      3.01339512094555
  C          12.23841221679783     -0.30824793645083      5.30680404367452
