# avogadro generated ORCA input file 
# Basic Mode
# 
!B3LYP STO-3G Opt CPCM(WATER) D4

* xyz 0 1
   C       12.08600        5.27100       -2.14000
   C       10.67700        4.77500       -1.69300
   O       10.77900        4.49400       -0.24600
   C        9.56200        3.79900        0.19300
   O        9.93800        3.55000        1.60000
   C        8.98100        2.64600        2.26700
   C        8.60800        1.31700        1.49000
   O        7.97600        1.40500        0.18300
   C        7.64000        0.48900        2.44100
   N        7.19200       -0.67600        1.57100
   C        8.44300        0.12600        3.74600
   O        7.56600       -0.62800        4.63800
   C        8.30900       -1.13400        5.83000
   C        9.12500       -2.44600        5.44900
   C       10.22000       -2.82800        6.51000
   O        8.25700       -3.58900        5.08200
   C        7.23300       -3.87100        6.09500
   O        7.87100       -4.42700        7.33300
   C        7.19000       -5.68200        7.72300
   C        7.18700       -6.79100        6.58500
   O        6.15900       -6.39200        5.59700
   C        6.85700       -8.22800        7.17800
   N        6.99800       -9.37000        6.18400
   C        7.78600       -8.52000        8.43300
   O        7.56900       -9.82300        9.02700
   O        7.52400       -7.50600        9.48800
   C        7.99700       -6.20300        8.99500
   C        7.82700       -5.20000       10.19200
   O        8.65000       -5.63500       11.34800
   C        9.72500       -4.71700       11.58500
   C       10.56100       -5.23300       12.79500
   O        9.92100       -3.68100       10.91100
   C        6.31800       -2.61500        6.42900
   N        5.50100       -2.31300        5.17000
   C        7.17800       -1.38000        6.89800
   C        7.70600       -1.53400        8.35700
   O        8.78600        1.38000        4.47800
   C        9.67900        2.19800        3.63000
   C       10.06600        3.43400        4.53200
   O       11.23000        4.16800        3.98100
   C       12.42400        3.85100        4.70800
   C       13.61100        4.64100        4.07600
   O       12.46200        3.07400        5.68800
   C        8.23800        4.69100       -0.00200
   N        7.01300        3.80300        0.28500
   C        8.14400        5.23800       -1.47600
   C        6.99200        6.28000       -1.62600
   C        9.52700        5.84300       -1.94800
   O        9.46700        6.10800       -3.40500
   C        9.41700        7.55300       -3.68900
   O        8.67300        7.68900       -4.98000
   C        9.46700        7.13900       -6.12500
   C        9.84900        5.61300       -6.03300
   O       10.10600        5.07100       -7.40100
   C       11.43100        5.18100       -7.86600
   C       11.51200        4.56500       -9.29500
   O       12.42500        5.69000       -7.26500
   C       10.69400        8.13000       -6.21400
   O       10.08400        9.47900       -6.09900
   C       11.67700        7.85300       -4.97700
   O       12.14900        6.47200       -4.86100
   C       10.86400        8.24200       -3.67600
   N       10.69400        9.75500       -3.54900
   H       12.80900        4.44600       -2.05000
   H       12.41400        6.09200       -1.48300
   H       12.06900        5.63500       -3.19100
   H       10.40900        3.85000       -2.25800
   H        9.38700        2.82900       -0.35700
   H        8.04200        3.18600        2.53200
   H        9.54100        0.71900        1.37100
   H        7.43200        2.32500        0.23800
   H        6.79400        1.13900        2.75300
   H        6.15300       -0.77500        1.77100
   H        7.20600       -0.12500        0.63500
   H        9.38000       -0.43800        3.48500
   H        9.02300       -0.36000        6.18900
   H        9.65800       -2.22000        4.49900
   H        9.75800       -3.33300        7.37000
   H       10.75500       -1.92700        6.84900
   H       10.94600       -3.51700        6.05200
   H        6.60700       -4.68700        5.63200
   H        6.12900       -5.49600        8.01500
   H        8.20100       -6.82300        6.12200
   H        6.45700       -6.89000        4.75200
   H        5.80300       -8.22200        7.52600
   H        7.95800       -9.23600        5.75000
   H        6.35400       -9.10700        5.38100
   H        8.86200       -8.49600        8.11500
   H        6.55600       -9.82100        9.19000
   H        9.07600       -6.25100        8.71000
   H        6.76700       -5.18400       10.52000
   H        8.14900       -4.18400        9.88100
   H        9.90400       -5.40600       13.66300
   H       11.32600       -4.48800       13.05800
   H       11.05400       -6.18400       12.53500
   H        5.62100       -2.91200        7.23700
   H        6.19100       -1.72000        4.60100
   H        4.82100       -1.56400        5.50200
   H        6.52600       -0.48500        6.86400
   H        8.16900       -2.52200        8.49300
   H        6.86500       -1.44700        9.06100
   H        8.44200       -0.74900        8.59200
   H       10.61100        1.63800        3.37100
   H       10.31800        3.06400        5.55000
   H        9.22000        4.14900        4.58600
   H       13.40200        5.72200        4.10100
   H       13.75200        4.33500        3.02700
   H       14.53200        4.43500        4.64300
   H        8.26800        5.54000        0.71200
   H        6.27400        4.03800       -0.43000
   H        6.59200        4.12100        1.19900
   H        7.93100        4.37300       -2.13600
   H        7.19400        7.17200       -1.01300
   H        6.02500        5.85600       -1.31300
   H        6.90100        6.58700       -2.67900
   H        9.75300        6.76000       -1.36200
   H        8.77200        8.10700       -2.96200
   H        8.79900        7.29700       -7.00100
   H       10.74100        5.55200       -5.35300
   H        8.98700        5.03000       -5.65300
   H       11.16900        3.51800       -9.27100
   H       12.55300        4.60500       -9.65000
   H       10.86500        5.13300       -9.98400
   H       11.23600        8.04500       -7.18000
   H        9.18900        9.17200       -5.65500
   H       12.53600        8.56300       -5.06900
   H       12.41500        6.21500       -5.84400
   H       11.39100        7.86100       -2.78000
   H       10.51700       10.00100       -4.59000
   H       11.69400       10.08800       -3.40600
   H        7.74800       -1.51800        1.61400
   H        6.83500      -10.28800        6.57100
   H        5.09600       -3.10800        4.69700
   H        7.24400        2.82000        0.29000
   H       10.00800       10.08000       -2.88300
   C        9.59300       -5.05400        2.05300
   C       10.03400       -6.38400        2.24100
   C       11.32800       -6.66700        2.66000
   C       12.20000       -5.62500        2.93700
   C       11.76600       -4.30400        2.80200
   C       10.47600       -3.98700        2.34300
   N       10.10600       -2.64600        2.06800
   H        9.32300       -2.32200        2.64400
   C       10.81300       -1.59800        1.42000
   C       11.62600       -0.66900        2.10700
  Cl       12.08300       -0.87000        3.77100
   C       12.23000        0.41100        1.44600
   C       12.08600        0.57200        0.07100
   C       11.33800       -0.35500       -0.64400
   C       10.70600       -1.41700        0.01900
  Cl        9.80100       -2.52700       -0.96000
   C        8.23000       -4.86900        1.41500
   C        7.09600       -4.55500        2.34400
   O        6.25200       -5.34600        2.74500
   O        6.98900       -3.24700        2.66700
   H        7.69100       -3.11800        3.34300
*

