33
Coordinates from ORCA-job Ibuprofen\Ibuprofen_TPSS_STO-3G\Ibuprofen_TPSS_STO-3G.orcainp E -648.722524859219
  C       2.950210     -0.389000      1.262740
  C       2.520450     -1.278480      0.093380
  C       0.995530     -1.407410      0.076750
  C       3.033050     -0.735040     -1.257200
  C       4.542160     -0.631790     -1.323750
  C       5.344210     -1.773030     -1.210370
  C       6.738460     -1.668380     -1.228430
  C       7.361340     -0.421860     -1.387150
  C       6.552280      0.718750     -1.505690
  C       5.159950      0.614500     -1.474460
  C       8.879980     -0.340920     -1.484840
  C       9.281890      0.247720     -2.841950
  C       9.611730      0.405240     -0.371630
  O       8.877450      0.766000      0.705490
  O      10.811950      0.643840     -0.413180
  H       2.593040     -0.801410      2.212030
  H       2.550000      0.625120      1.157900
  H       4.040240     -0.317770      1.333420
  H       2.933340     -2.279880      0.258260
  H       0.513450     -0.436170     -0.077450
  H       0.634240     -1.816020      1.026560
  H       0.667840     -2.081460     -0.721440
  H       2.583410      0.247560     -1.451140
  H       2.698960     -1.387020     -2.075130
  H       4.888860     -2.754890     -1.103260
  H       7.327480     -2.578870     -1.137920
  H       6.995990      1.704320     -1.635670
  H       4.560540      1.518480     -1.569840
  H       9.275100     -1.364820     -1.437490
  H       8.930760      1.279030     -2.956910
  H       8.863860     -0.344310     -3.663560
  H      10.370780      0.265190     -2.961320
  H       7.938070      0.511290      0.667340
33
Coordinates from ORCA-job Ibuprofen\Ibuprofen_TPSS_STO-3G\Ibuprofen_TPSS_STO-3G.orcainp E -648.746382415907
  C       2.906060     -0.378300      1.316850
  C       2.467596     -1.286969      0.128037
  C       0.913551     -1.424022      0.094701
  C       2.997385     -0.740375     -1.245634
  C       4.535434     -0.634860     -1.322460
  C       5.351295     -1.789480     -1.224034
  C       6.757988     -1.687207     -1.266895
  C       7.392962     -0.429598     -1.426445
  C       6.575284      0.725135     -1.527741
  C       5.168947      0.622945     -1.476034
  C       8.934486     -0.345017     -1.524421
  C       9.378242      0.259064     -2.897908
  C       9.656129      0.431886     -0.339767
  O       8.865127      0.793883      0.752664
  O      10.885416      0.706987     -0.341708
  H       2.536888     -0.789146      2.274948
  H       2.504011      0.645353      1.202730
  H       4.007722     -0.309081      1.385366
  H       2.892604     -2.299786      0.292907
  H       0.430576     -0.442312     -0.065397
  H       0.539791     -1.837539      1.049916
  H       0.592768     -2.101554     -0.718728
  H       2.548138      0.254175     -1.437161
  H       2.644187     -1.406509     -2.062375
  H       4.887915     -2.784595     -1.113516
  H       7.361283     -2.607928     -1.186605
  H       7.031638      1.721822     -1.654487
  H       4.560677      1.539697     -1.558323
  H       9.329381     -1.384102     -1.474103
  H       9.021985      1.299143     -3.014883
  H       8.977224     -0.338582     -3.737467
  H      10.481788      0.273356     -2.979912
  H       7.892127      0.482022      0.601974
33
Coordinates from ORCA-job Ibuprofen\Ibuprofen_TPSS_STO-3G\Ibuprofen_TPSS_STO-3G.orcainp E -648.749537862874
  C       2.884808     -0.341849      1.335332
  C       2.463055     -1.278755      0.153986
  C       0.905416     -1.438350      0.104939
  C       2.994553     -0.742015     -1.230880
  C       4.537822     -0.637648     -1.307194
  C       5.355500     -1.798729     -1.231591
  C       6.762832     -1.701847     -1.303596
  C       7.402780     -0.441626     -1.458564
  C       6.585140      0.720697     -1.532468
  C       5.177183      0.622086     -1.456584
  C       8.947160     -0.356492     -1.554951
  C       9.422240      0.276403     -2.911892
  C       9.631809      0.426681     -0.328275
  O       8.788659      0.761697      0.759314
  O      10.859004      0.727597     -0.280940
  H       2.511485     -0.743014      2.295986
  H       2.468407      0.673450      1.198211
  H       3.985754     -0.259306      1.401193
  H       2.905328     -2.282697      0.331042
  H       0.416255     -0.462300     -0.071575
  H       0.529613     -1.846058      1.061836
  H       0.606769     -2.127500     -0.706954
  H       2.550640      0.254672     -1.426551
  H       2.636762     -1.422272     -2.033415
  H       4.888386     -2.792581     -1.122885
  H       7.370693     -2.621242     -1.242831
  H       7.048030      1.715271     -1.652803
  H       4.567644      1.539913     -1.519849
  H       9.345070     -1.394682     -1.507564
  H       9.050338      1.312059     -3.019942
  H       9.051205     -0.320079     -3.765920
  H      10.527693      0.301056     -2.951794
  H       7.848569      0.415970      0.481269
33
Coordinates from ORCA-job Ibuprofen\Ibuprofen_TPSS_STO-3G\Ibuprofen_TPSS_STO-3G.orcainp E -648.750127052652
  C       2.873553     -0.278458      1.326240
  C       2.473866     -1.260911      0.174643
  C       0.919998     -1.453730      0.123432
  C       2.997293     -0.755015     -1.226549
  C       4.538958     -0.648871     -1.308370
  C       5.357707     -1.810467     -1.245999
  C       6.763041     -1.713577     -1.327846
  C       7.402601     -0.451471     -1.475935
  C       6.583409      0.711784     -1.540311
  C       5.176788      0.611470     -1.456170
  C       8.945303     -0.364491     -1.576165
  C       9.431989      0.320654     -2.902562
  C       9.614130      0.385171     -0.313198
  O       8.745296      0.661133      0.785083
  O      10.832526      0.708968     -0.243712
  H       2.505570     -0.657783      2.297292
  H       2.434753      0.721482      1.153541
  H       3.972410     -0.172471      1.385276
  H       2.938872     -2.248514      0.380240
  H       0.415871     -0.491960     -0.084141
  H       0.549502     -1.840456      1.090679
  H       0.643031     -2.171726     -0.670368
  H       2.553366      0.236975     -1.441650
  H       2.639032     -1.460177     -2.005857
  H       4.889515     -2.803863     -1.138695
  H       7.376023     -2.630129     -1.280094
  H       7.048288      1.705107     -1.662147
  H       4.563983      1.527500     -1.510971
  H       9.345617     -1.401884     -1.559134
  H       9.042904      1.352105     -2.980217
  H       9.083920     -0.256826     -3.778722
  H      10.537167      0.359537     -2.915270
  H       7.830319      0.309404      0.431748
33
Coordinates from ORCA-job Ibuprofen\Ibuprofen_TPSS_STO-3G\Ibuprofen_TPSS_STO-3G.orcainp E -648.750305577878
  C       2.869847     -0.200022      1.297657
  C       2.488196     -1.238798      0.191284
  C       0.939573     -1.467565      0.152992
  C       2.997028     -0.780018     -1.231444
  C       4.536106     -0.667013     -1.322920
  C       5.359355     -1.824922     -1.263078
  C       6.763063     -1.722167     -1.348261
  C       7.397078     -0.456739     -1.493960
  C       6.572419      0.702946     -1.557626
  C       5.167327      0.595813     -1.472185
  C       8.938561     -0.363450     -1.593184
  C       9.429642      0.383595     -2.882535
  C       9.603292      0.328726     -0.294477
  O       8.734395      0.507793      0.828893
  O      10.814016      0.669562     -0.213378
  H       2.514718     -0.546015      2.285477
  H       2.407079      0.780663      1.083630
  H       3.966300     -0.067409      1.344383
  H       2.976829     -2.205788      0.434930
  H       0.415377     -0.526551     -0.094836
  H       0.579810     -1.819791      1.137064
  H       0.678369     -2.225168     -0.608282
  H       2.545865      0.200933     -1.478027
  H       2.640698     -1.517353     -1.980570
  H       4.894309     -2.819394     -1.154693
  H       7.382486     -2.634201     -1.303513
  H       7.034271      1.697479     -1.677719
  H       4.549140      1.507999     -1.524861
  H       9.341168     -1.399365     -1.621296
  H       9.027961      1.412020     -2.919550
  H       9.098657     -0.161068     -3.785629
  H      10.534089      0.434667     -2.878193
  H       7.829574      0.159109      0.447995
33
Coordinates from ORCA-job Ibuprofen\Ibuprofen_TPSS_STO-3G\Ibuprofen_TPSS_STO-3G.orcainp E -648.750382097455
  C       2.869635     -0.102084      1.253548
  C       2.507930     -1.209105      0.209502
  C       0.966777     -1.481400      0.196388
  C       2.996042     -0.813525     -1.239464
  C       4.532051     -0.691772     -1.343114
  C       5.359991     -1.845532     -1.289833
  C       6.762360     -1.735044     -1.375988
  C       7.389404     -0.465149     -1.516448
  C       6.558895      0.690299     -1.573118
  C       5.155768      0.575054     -1.486706
  C       8.929683     -0.363970     -1.612381
  C       9.427976      0.460220     -2.848870
  C       9.587412      0.247097     -0.270717
  O       8.713766      0.318913      0.863645
  O      10.778076      0.643247     -0.179356
  H       2.534206     -0.403188      2.262547
  H       2.376903      0.851644      0.990886
  H       3.962411      0.063026      1.279932
  H       3.025890     -2.147437      0.499412
  H       0.416019     -0.570626     -0.101258
  H       0.622441     -1.785920      1.201537
  H       0.722572     -2.288400     -0.518085
  H       2.533421      0.150398     -1.527374
  H       2.643118     -1.590601     -1.948209
  H       4.898355     -2.841820     -1.185444
  H       7.388888     -2.642309     -1.337508
  H       7.017200      1.687281     -1.683129
  H       4.531625      1.483217     -1.533776
  H       9.334094     -1.396004     -1.698249
  H       9.012028      1.483100     -2.834313
  H       9.120116     -0.037383     -3.786425
  H      10.531209      0.525213     -2.821693
  H       7.820338     -0.028931      0.458151
33
Coordinates from ORCA-job Ibuprofen\Ibuprofen_TPSS_STO-3G\Ibuprofen_TPSS_STO-3G.orcainp E -648.750457292223
  C       2.861892     -0.078013      1.243426
  C       2.507774     -1.201614      0.214598
  C       0.968182     -1.482690      0.205133
  C       2.995594     -0.826093     -1.240619
  C       4.531662     -0.698716     -1.346347
  C       5.362834     -1.849969     -1.293693
  C       6.765453     -1.734920     -1.379180
  C       7.388860     -0.463034     -1.521142
  C       6.554931      0.689710     -1.576826
  C       5.152095      0.570463     -1.488904
  C       8.929509     -0.358614     -1.618227
  C       9.426437      0.481424     -2.843891
  C       9.590279      0.235099     -0.270501
  O       8.731386      0.255727      0.874590
  O      10.781863      0.628166     -0.175669
  H       2.527613     -0.366613      2.256588
  H       2.364075      0.869448      0.967515
  H       3.953195      0.093920      1.269523
  H       3.030755     -2.132771      0.518871
  H       0.411975     -0.580242     -0.107755
  H       0.624275     -1.772613      1.214864
  H       0.728416     -2.302730     -0.496055
  H       2.527392      0.130464     -1.544087
  H       2.646952     -1.615746     -1.937452
  H       4.903728     -2.847673     -1.190519
  H       7.394651     -2.640541     -1.341750
  H       7.010332      1.688186     -1.685989
  H       4.525261      1.476832     -1.537028
  H       9.334699     -1.389460     -1.717817
  H       9.006388      1.502496     -2.819210
  H       9.123919     -0.005998     -3.788590
  H      10.529376      0.551850     -2.813581
  H       7.834846     -0.087224      0.473815
33
Coordinates from ORCA-job Ibuprofen\Ibuprofen_TPSS_STO-3G\Ibuprofen_TPSS_STO-3G.orcainp E -648.750486754799
  C       2.849632     -0.076453      1.247833
  C       2.501640     -1.200771      0.217386
  C       0.961669     -1.480729      0.200610
  C       2.996798     -0.829887     -1.237123
  C       4.533687     -0.699249     -1.342126
  C       5.366339     -1.849826     -1.292078
  C       6.769362     -1.733445     -1.380006
  C       7.391970     -0.460976     -1.521380
  C       6.556816      0.691136     -1.573814
  C       5.153626      0.570951     -1.483752
  C       8.933344     -0.356764     -1.620835
  C       9.427918      0.481603     -2.848613
  C       9.598790      0.237378     -0.275107
  O       8.751557      0.244493      0.875836
  O      10.787139      0.644522     -0.187655
  H       2.509097     -0.364695      2.259100
  H       2.353616      0.871265      0.969244
  H       3.940301      0.095931      1.281978
  H       3.022070     -2.132059      0.526231
  H       0.407270     -0.578504     -0.116371
  H       0.612263     -1.768727      1.209071
  H       0.724143     -2.301635     -0.500473
  H       2.526208      0.123709     -1.546831
  H       2.651767     -1.623094     -1.931846
  H       4.908397     -2.848259     -1.189917
  H       7.398580     -2.639247     -1.344875
  H       7.010749      1.690214     -1.684200
  H       4.526371      1.477194     -1.530955
  H       9.337148     -1.388253     -1.720514
  H       9.007931      1.502882     -2.825611
  H       9.124949     -0.006643     -3.792828
  H      10.530914      0.553332     -2.820337
  H       7.854538     -0.106883      0.484047
33
Coordinates from ORCA-job Ibuprofen\Ibuprofen_TPSS_STO-3G\Ibuprofen_TPSS_STO-3G.orcainp E -648.750499328356
  C       2.846457     -0.044477      1.233775
  C       2.506707     -1.190149      0.224005
  C       0.968707     -1.482396      0.213361
  C       2.997648     -0.842878     -1.237623
  C       4.533624     -0.707010     -1.346002
  C       5.368603     -1.856185     -1.302721
  C       6.771331     -1.736524     -1.393695
  C       7.390861     -0.461936     -1.529383
  C       6.553478      0.688694     -1.573401
  C       5.150802      0.565411     -1.482267
  C       8.931911     -0.354225     -1.626909
  C       9.429046      0.501380     -2.841370
  C       9.589393      0.222484     -0.269549
  O       8.748261      0.174186      0.883641
  O      10.766252      0.662314     -0.175870
  H       2.510920     -0.318565      2.250707
  H       2.340490      0.893604      0.940602
  H       3.935979      0.139727      1.262926
  H       3.034786     -2.111701      0.549240
  H       0.406946     -0.590422     -0.119507
  H       0.622078     -1.754539      1.227213
  H       0.736638     -2.317663     -0.472520
  H       2.520851      0.102063     -1.564517
  H       2.656390     -1.651020     -1.916849
  H       4.912748     -2.855996     -1.203800
  H       7.402224     -2.641455     -1.363865
  H       7.005131      1.689483     -1.678356
  H       4.521788      1.470857     -1.523151
  H       9.336874     -1.384167     -1.738616
  H       9.003870      1.520337     -2.809003
  H       9.135100      0.023662     -3.793842
  H      10.531500      0.578972     -2.805192
  H       7.859207     -0.193357      0.486628
33
Coordinates from ORCA-job Ibuprofen\Ibuprofen_TPSS_STO-3G\Ibuprofen_TPSS_STO-3G.orcainp E -648.750507270886
  C       2.841865     -0.055828      1.241821
  C       2.503243     -1.193648      0.222924
  C       0.964391     -1.481541      0.205316
  C       2.998968     -0.837938     -1.234918
  C       4.535261     -0.703035     -1.341968
  C       5.368957     -1.853420     -1.302372
  C       6.771925     -1.735681     -1.393129
  C       7.393359     -0.461793     -1.525898
  C       6.557379      0.690181     -1.566328
  C       5.154378      0.568776     -1.474756
  C       8.934764     -0.355606     -1.624760
  C       9.430277      0.487187     -2.848861
  C       9.592674      0.236449     -0.274198
  O       8.751884      0.202516      0.879767
  O      10.768874      0.679679     -0.186288
  H       2.502802     -0.337164      2.255612
  H       2.337895      0.884982      0.954058
  H       3.931137      0.127059      1.275602
  H       3.027561     -2.118847      0.543719
  H       0.406212     -0.585304     -0.122039
  H       0.614162     -1.760812      1.215984
  H       0.732092     -2.310610     -0.487929
  H       2.523783      0.109504     -1.556797
  H       2.657569     -1.641310     -1.919721
  H       4.912099     -2.853033     -1.206305
  H       7.400887     -2.642026     -1.366239
  H       7.010040      1.690787     -1.668812
  H       4.527004      1.475479     -1.512253
  H       9.339269     -1.386770     -1.726079
  H       9.006358      1.506927     -2.825517
  H       9.133044      0.000226     -3.795599
  H      10.532918      0.563738     -2.816305
  H       7.863567     -0.170614      0.486359
33
Coordinates from ORCA-job Ibuprofen\Ibuprofen_TPSS_STO-3G\Ibuprofen_TPSS_STO-3G.orcainp E -648.750512293771
  C       2.839283     -0.058118      1.243242
  C       2.502269     -1.194204      0.222066
  C       0.963344     -1.481522      0.201632
  C       2.999866     -0.836030     -1.234398
  C       4.536081     -0.701484     -1.340193
  C       5.368805     -1.852687     -1.305177
  C       6.771883     -1.736048     -1.394790
  C       7.394505     -0.462265     -1.521883
  C       6.559475      0.690598     -1.558293
  C       5.156374      0.570187     -1.467479
  C       8.935927     -0.356169     -1.622542
  C       9.428722      0.478949     -2.852878
  C       9.594161      0.246179     -0.276861
  O       8.757049      0.210917      0.880383
  O      10.767014      0.698777     -0.194714
  H       2.499979     -0.342048      2.256197
  H       2.334219      0.882542      0.956982
  H       3.928167      0.126234      1.277752
  H       3.025756     -2.120037      0.542197
  H       0.406130     -0.584137     -0.124095
  H       0.611822     -1.763333      1.211121
  H       0.731803     -2.308684     -0.494083
  H       2.525362      0.112198     -1.554846
  H       2.658900     -1.638021     -1.920951
  H       4.911212     -2.852344     -1.213541
  H       7.399569     -2.643326     -1.371758
  H       7.012866      1.691278     -1.656765
  H       4.530064      1.477724     -1.501469
  H       9.340782     -1.387718     -1.717732
  H       9.004129      1.498497     -2.834780
  H       9.129419     -0.014302     -3.795669
  H      10.531354      0.556214     -2.823158
  H       7.870310     -0.169307      0.490572
33
Coordinates from ORCA-job Ibuprofen\Ibuprofen_TPSS_STO-3G\Ibuprofen_TPSS_STO-3G.orcainp E -648.750517278364
  C       2.837033     -0.057876      1.242878
  C       2.501974     -1.193677      0.220875
  C       0.963209     -1.481708      0.198726
  C       3.000620     -0.834280     -1.234868
  C       4.536729     -0.700024     -1.339353
  C       5.368157     -1.852279     -1.312590
  C       6.771440     -1.736795     -1.400317
  C       7.395421     -0.462919     -1.517106
  C       6.561747      0.691122     -1.545409
  C       5.158531      0.571789     -1.456400
  C       8.936842     -0.356142     -1.618604
  C       9.426679      0.467382     -2.857907
  C       9.593406      0.261631     -0.279790
  O       8.763763      0.214267      0.883289
  O      10.758572      0.734242     -0.205872
  H       2.499112     -0.343798      2.255702
  H       2.329253      0.881643      0.957742
  H       3.925427      0.129456      1.276658
  H       3.025600     -2.119353      0.541136
  H       0.406078     -0.583917     -0.125912
  H       0.611139     -1.765405      1.207473
  H       0.732733     -2.307850     -0.498517
  H       2.526448      0.114354     -1.554566
  H       2.660261     -1.635619     -1.922380
  H       4.909570     -2.852144     -1.228791
  H       7.397660     -2.645198     -1.383395
  H       7.016251      1.692082     -1.635588
  H       4.533587      1.480454     -1.483897
  H       9.342871     -1.388092     -1.703790
  H       8.999918      1.486131     -2.848813
  H       9.126516     -0.035897     -3.795082
  H      10.529175      0.547044     -2.830695
  H       7.880875     -0.180116      0.499253
33
Coordinates from ORCA-job Ibuprofen\Ibuprofen_TPSS_STO-3G\Ibuprofen_TPSS_STO-3G.orcainp E -648.750518749179
  C       2.837524     -0.057318      1.242000
  C       2.502179     -1.193192      0.220117
  C       0.963498     -1.481649      0.198625
  C       3.000388     -0.833650     -1.235846
  C       4.536576     -0.699691     -1.339905
  C       5.367594     -1.852245     -1.316102
  C       6.771009     -1.736911     -1.402854
  C       7.395258     -0.462917     -1.515561
  C       6.562053      0.691467     -1.540965
  C       5.158787      0.572337     -1.452991
  C       8.936651     -0.355614     -1.616535
  C       9.425902      0.463131     -2.859337
  C       9.592066      0.267997     -0.280346
  O       8.766543      0.212038      0.885536
  O      10.753123      0.750914     -0.209701
  H       2.500438     -0.343277      2.255095
  H       2.329295      0.882061      0.957185
  H       3.925950      0.130214      1.275020
  H       3.026265     -2.118721      0.540105
  H       0.405979     -0.584021     -0.125820
  H       0.611873     -1.765419      1.207513
  H       0.732969     -2.307915     -0.498466
  H       2.526309      0.115131     -1.555285
  H       2.659959     -1.634847     -1.923466
  H       4.908618     -2.852197     -1.235379
  H       7.397067     -2.645468     -1.388041
  H       7.017095      1.692491     -1.627927
  H       4.534104      1.481258     -1.478291
  H       9.343389     -1.387675     -1.697381
  H       8.997672      1.481310     -2.854545
  H       9.126633     -0.044541     -3.794420
  H      10.528278      0.544458     -2.832175
  H       7.885554     -0.189031      0.504235
33
Coordinates from ORCA-job Ibuprofen\Ibuprofen_TPSS_STO-3G\Ibuprofen_TPSS_STO-3G.orcainp E -648.750519475748
  C       2.838835     -0.058534      1.242104
  C       2.502214     -1.193306      0.219326
  C       0.963467     -1.481337      0.198566
  C       2.999931     -0.832603     -1.236646
  C       4.536296     -0.699195     -1.340470
  C       5.367095     -1.851888     -1.317298
  C       6.770607     -1.736539     -1.403499
  C       7.394883     -0.462532     -1.514997
  C       6.561957      0.692018     -1.539724
  C       5.158661      0.572970     -1.452395
  C       8.936270     -0.355037     -1.615130
  C       9.425838      0.460283     -2.860177
  C       9.590736      0.272130     -0.280536
  O       8.767684      0.211029      0.886813
  O      10.749352      0.761193     -0.211543
  H       2.501644     -0.344728      2.255107
  H       2.331717      0.881688      0.958071
  H       3.927560      0.127491      1.275123
  H       3.026328     -2.119297      0.538006
  H       0.405905     -0.583477     -0.125214
  H       0.612225     -1.765440      1.207506
  H       0.732307     -2.307267     -0.498738
  H       2.526193      0.116692     -1.555100
  H       2.658999     -1.633023     -1.924942
  H       4.907837     -2.851799     -1.237500
  H       7.396870     -2.644970     -1.389028
  H       7.017450      1.692933     -1.625665
  H       4.533923      1.481881     -1.477238
  H       9.343439     -1.387215     -1.692805
  H       8.996498      1.478018     -2.858865
  H       9.127985     -0.050556     -3.793984
  H      10.528111      0.542924     -2.832285
  H       7.887782     -0.193997      0.507246
33
Coordinates from ORCA-job Ibuprofen\Ibuprofen_TPSS_STO-3G\Ibuprofen_TPSS_STO-3G.orcainp E -648.750519745908
  C       2.839837     -0.060811      1.243033
  C       2.501993     -1.193822      0.218678
  C       0.963076     -1.480836      0.197922
  C       2.999686     -0.831361     -1.236914
  C       4.536177     -0.698510     -1.340510
  C       5.366800     -1.851304     -1.316820
  C       6.770380     -1.736014     -1.402809
  C       7.394687     -0.462089     -1.514677
  C       6.561950      0.692561     -1.539918
  C       5.158651      0.573640     -1.452786
  C       8.936076     -0.354686     -1.614441
  C       9.426021      0.458166     -2.860980
  C       9.589951      0.274975     -0.280883
  O       8.768295      0.211486      0.887270
  O      10.747061      0.767886     -0.212975
  H       2.501854     -0.347691      2.255587
  H       2.334320      0.880580      0.960013
  H       3.928866      0.123357      1.276705
  H       3.025630     -2.120636      0.535777
  H       0.405948     -0.582352     -0.124910
  H       0.611773     -1.765679      1.206638
  H       0.731233     -2.305934     -0.500153
  H       2.526440      0.118607     -1.554087
  H       2.658251     -1.630687     -1.926254
  H       4.907325     -2.851108     -1.236743
  H       7.396811     -2.644342     -1.387913
  H       7.017764      1.693309     -1.626122
  H       4.533817      1.482483     -1.477987
  H       9.343410     -1.386992     -1.689892
  H       8.995905      1.475578     -2.862267
  H       9.129326     -0.054966     -3.793895
  H      10.528215      0.541722     -2.832378
  H       7.889072     -0.196021      0.508780
