24
Coordinates from ORCA-job Triclosan\Triclosan_B3LYP_STO-3G\Triclosan_B3LYP_STO-3G.orcainp E -1969.172205505193
  C      -0.498380      1.456720      0.098960
  C       0.836360      1.861870      0.139870
  C       1.858500      0.909640      0.076920
  C       1.527050     -0.445530      0.103270
  C       0.193990     -0.859110      0.065880
  C      -0.813110      0.098450      0.043280
  Cl     -2.458040     -0.389950     -0.044300
  O       2.486230     -1.418040      0.159240
  O       3.195400      1.239150      0.004080
  C       3.558400      2.365550     -0.713420
  C       4.599240      3.161890     -0.218400
  C       4.975450      4.330570     -0.889960
  C       4.312220      4.697790     -2.056160
  C       3.302130      3.893950     -2.580580
  C       2.944190      2.713370     -1.925990
  Cl      4.745030      6.153320     -2.864750
  Cl      5.438900      2.741890      1.230850
  H      -1.286770      2.204470      0.098980
  H       1.062640      2.922230      0.193350
  H      -0.040810     -1.921090      0.052350
  H       3.329410     -0.977310      0.373690
  H       5.776510      4.951890     -0.496780
  H       2.786880      4.180330     -3.495300
  H       2.168020      2.086870     -2.360910
24
Coordinates from ORCA-job Triclosan\Triclosan_B3LYP_STO-3G\Triclosan_B3LYP_STO-3G.orcainp E -1969.199087985402
  C      -0.575022      1.423090      0.123918
  C       0.762184      1.854670      0.131436
  C       1.815905      0.913060      0.067377
  C       1.513171     -0.482256      0.107739
  C       0.165029     -0.914029      0.101397
  C      -0.867703      0.041897      0.090776
  Cl     -2.564736     -0.495311      0.045198
  O       2.509437     -1.458114      0.141557
  O       3.188506      1.253797      0.011433
  C       3.556951      2.401958     -0.718820
  C       4.624675      3.192725     -0.211518
  C       5.039174      4.356672     -0.892287
  C       4.389877      4.732271     -2.084591
  C       3.352886      3.936550     -2.618879
  C       2.955376      2.766597     -1.951868
  Cl      4.886604      6.218035     -2.928403
  Cl      5.452430      2.730280      1.294280
  H      -1.385963      2.161511      0.135595
  H       0.976912      2.930001      0.170723
  H      -0.056891     -1.987990      0.101103
  H       3.385135     -0.956169      0.308365
  H       5.858497      4.966691     -0.489212
  H       2.853936      4.227770     -3.552852
  H       2.163069      2.145214     -2.388297
24
Coordinates from ORCA-job Triclosan\Triclosan_B3LYP_STO-3G\Triclosan_B3LYP_STO-3G.orcainp E -1969.204498696971
  C      -0.608941      1.403833      0.098239
  C       0.724144      1.854762      0.068212
  C       1.791315      0.924957      0.037386
  C       1.519744     -0.485056      0.104454
  C       0.173275     -0.934846      0.136089
  C      -0.870140      0.013467      0.119063
  Cl     -2.582712     -0.562975      0.130994
  O       2.540356     -1.449325      0.124358
  O       3.179040      1.268054      0.042608
  C       3.530210      2.431873     -0.688473
  C       4.625876      3.203573     -0.195635
  C       5.079185      4.346164     -0.888293
  C       4.431247      4.720935     -2.086170
  C       3.358716      3.956765     -2.606967
  C       2.921082      2.812857     -1.917315
  Cl      4.986550      6.193910     -2.966032
  Cl      5.448250      2.707658      1.328761
  H      -1.435321      2.126350      0.104944
  H       0.931272      2.933778      0.067810
  H      -0.034935     -2.012478      0.166695
  H       3.398878     -0.891452      0.185911
  H       5.921201      4.933768     -0.495316
  H       2.870487      4.252063     -3.546478
  H       2.100663      2.210284     -2.330674
24
Coordinates from ORCA-job Triclosan\Triclosan_B3LYP_STO-3G\Triclosan_B3LYP_STO-3G.orcainp E -1969.206468256717
  C      -0.678857      1.360922      0.150135
  C       0.637904      1.858273      0.079944
  C       1.729805      0.963263      0.022995
  C       1.515842     -0.454944      0.067145
  C       0.189366     -0.956259      0.147037
  C      -0.879609     -0.038769      0.180416
  Cl     -2.578810     -0.682674      0.270028
  O       2.588720     -1.359892      0.020121
  O       3.124776      1.316161      0.078780
  C       3.493830      2.471499     -0.670205
  C       4.600543      3.224732     -0.171289
  C       5.118856      4.329862     -0.875743
  C       4.516697      4.681620     -2.104058
  C       3.430184      3.946323     -2.635061
  C       2.927861      2.843500     -1.922581
  Cl      5.162495      6.107232     -3.020502
  Cl      5.353385      2.732679      1.400523
  H      -1.532419      2.049682      0.192170
  H       0.815157      2.942414      0.077913
  H       0.018663     -2.040510      0.173463
  H       3.394325     -0.722358     -0.058888
  H       5.968406      4.899833     -0.473350
  H       2.987631      4.228529     -3.600883
  H       2.094689      2.257801     -2.333941
24
Coordinates from ORCA-job Triclosan\Triclosan_B3LYP_STO-3G\Triclosan_B3LYP_STO-3G.orcainp E -1969.206969015260
  C      -0.696795      1.348048      0.128325
  C       0.613532      1.867246      0.081326
  C       1.713539      0.985399      0.046189
  C       1.523400     -0.435224      0.070286
  C       0.205507     -0.960894      0.127290
  C      -0.872854     -0.054801      0.154341
  Cl     -2.564586     -0.723520      0.223934
  O       2.628208     -1.299553      0.039805
  O       3.108952      1.339987      0.129769
  C       3.487762      2.478286     -0.641605
  C       4.623478      3.208197     -0.175491
  C       5.154954      4.294434     -0.898088
  C       4.527964      4.650977     -2.112557
  C       3.405778      3.947292     -2.607882
  C       2.892845      2.862355     -1.875155
  Cl      5.189010      6.051018     -3.057811
  Cl      5.396997      2.705272      1.383156
  H      -1.563012      2.021390      0.153760
  H       0.777703      2.954043      0.070303
  H       0.048566     -2.047164      0.145379
  H       3.401217     -0.621589     -0.056478
  H       6.028337      4.845109     -0.521169
  H       2.943958      4.239491     -3.561563
  H       2.024979      2.303119     -2.251895
24
Coordinates from ORCA-job Triclosan\Triclosan_B3LYP_STO-3G\Triclosan_B3LYP_STO-3G.orcainp E -1969.207456448342
  C      -0.722857      1.329086      0.134115
  C       0.576627      1.879336      0.126008
  C       1.688622      1.017034      0.087155
  C       1.529812     -0.408397      0.067576
  C       0.224418     -0.965477      0.077437
  C      -0.867806     -0.076523      0.113134
  Cl     -2.546147     -0.776589      0.133700
  O       2.671454     -1.221913      0.052206
  O       3.082049      1.381898      0.189278
  C       3.478737      2.491091     -0.616121
  C       4.646497      3.191325     -0.186770
  C       5.193751      4.253418     -0.932148
  C       4.545316      4.614214     -2.134109
  C       3.390398      3.942490     -2.592739
  C       2.862778      2.880704     -1.835919
  Cl      5.224103      5.980017     -3.112063
  Cl      5.438793      2.681589      1.357815
  H      -1.604827      1.981139      0.159810
  H       0.719813      2.968966      0.139847
  H       0.085153     -2.053787      0.060545
  H       3.409708     -0.499740      0.007805
  H       6.091617      4.781884     -0.583089
  H       2.913593      4.241076     -3.536719
  H       1.967839      2.346077     -2.182586
24
Coordinates from ORCA-job Triclosan\Triclosan_B3LYP_STO-3G\Triclosan_B3LYP_STO-3G.orcainp E -1969.207737894554
  C      -0.753240      1.305791      0.146762
  C       0.532136      1.891050      0.179480
  C       1.659268      1.053093      0.125730
  C       1.537513     -0.375298      0.064826
  C       0.249143     -0.966808      0.030699
  C      -0.862483     -0.100531      0.073007
  Cl     -2.522824     -0.835623      0.033482
  O       2.716286     -1.128543      0.045203
  O       3.046988      1.434455      0.252562
  C       3.467906      2.505146     -0.591297
  C       4.667835      3.170976     -0.197040
  C       5.231306      4.206301     -0.967001
  C       4.566271      4.574095     -2.158259
  C       3.381808      3.933824     -2.582425
  C       2.837403      2.897496     -1.801575
  Cl      5.263023      5.904856     -3.166849
  Cl      5.477900      2.654002      1.333201
  H      -1.652750      1.932906      0.179754
  H       0.648137      2.982450      0.235859
  H       0.131846     -2.056073     -0.026735
  H       3.409121     -0.358200      0.072991
  H       6.153437      4.709583     -0.645583
  H       2.892878      4.237692     -3.518363
  H       1.920533      2.386280     -2.124259
24
Coordinates from ORCA-job Triclosan\Triclosan_B3LYP_STO-3G\Triclosan_B3LYP_STO-3G.orcainp E -1969.207780994072
  C      -0.759326      1.300656      0.144260
  C       0.523599      1.891626      0.183018
  C       1.654242      1.058447      0.127429
  C       1.539122     -0.371069      0.064753
  C       0.253244     -0.967313      0.027379
  C      -0.863322     -0.105949      0.066362
  Cl     -2.520595     -0.847861      0.018808
  O       2.722307     -1.116561      0.045022
  O       3.039482      1.446534      0.264129
  C       3.466913      2.509084     -0.586886
  C       4.674028      3.166506     -0.199066
  C       5.238720      4.197638     -0.973774
  C       4.570643      4.570361     -2.162045
  C       3.380244      3.935716     -2.579512
  C       2.833155      2.903665     -1.794836
  Cl      5.269595      5.897660     -3.174149
  Cl      5.490648      2.645312      1.326458
  H      -1.661576      1.923904      0.177988
  H       0.633539      2.983199      0.247303
  H       0.139455     -2.056978     -0.030805
  H       3.408543     -0.338828      0.088005
  H       6.166445      4.694633     -0.658208
  H       2.887836      4.241256     -3.513178
  H       1.912497      2.397281     -2.114285
24
Coordinates from ORCA-job Triclosan\Triclosan_B3LYP_STO-3G\Triclosan_B3LYP_STO-3G.orcainp E -1969.207799933125
  C      -0.766078      1.295300      0.143555
  C       0.514396      1.891595      0.185682
  C       1.649075      1.063706      0.128018
  C       1.540815     -0.366408      0.063321
  C       0.257185     -0.967136      0.025032
  C      -0.864747     -0.111767      0.062915
  Cl     -2.518750     -0.861848      0.011491
  O       2.727319     -1.106955      0.042615
  O       3.031390      1.459191      0.275259
  C       3.464756      2.514625     -0.581822
  C       4.678245      3.164033     -0.199201
  C       5.245315      4.190037     -0.978929
  C       4.576652      4.566643     -2.165723
  C       3.380709      3.937641     -2.577522
  C       2.829561      2.911042     -1.788625
  Cl      5.280455      5.889039     -3.181918
  Cl      5.498852      2.640088      1.323768
  H      -1.670903      1.914975      0.178248
  H       0.618050      2.983505      0.255310
  H       0.147358     -2.057384     -0.032679
  H       3.409730     -0.324841      0.089548
  H       6.178078      4.680926     -0.668072
  H       2.886482      4.243380     -3.510295
  H       1.905497      2.409532     -2.105810
24
Coordinates from ORCA-job Triclosan\Triclosan_B3LYP_STO-3G\Triclosan_B3LYP_STO-3G.orcainp E -1969.207804545550
  C      -0.767862      1.293586      0.141658
  C       0.511496      1.891761      0.188105
  C       1.648016      1.066197      0.131536
  C       1.542511     -0.363988      0.063805
  C       0.259781     -0.966316      0.020701
  C      -0.864120     -0.113552      0.057796
  Cl     -2.516441     -0.866990      0.000831
  O       2.729674     -1.103934      0.045657
  O       3.028821      1.465687      0.283131
  C       3.463314      2.517741     -0.577538
  C       4.680768      3.162817     -0.199977
  C       5.248717      4.185390     -0.983480
  C       4.577818      4.563524     -2.168461
  C       3.377655      3.938803     -2.574718
  C       2.825166      2.915701     -1.782272
  Cl      5.283617      5.881707     -3.188877
  Cl      5.504985      2.637927      1.320774
  H      -1.673677      1.911932      0.175051
  H       0.612539      2.983866      0.259179
  H       0.151692     -2.056684     -0.038912
  H       3.411702     -0.322048      0.098534
  H       6.184655      4.672852     -0.676648
  H       2.880906      4.244909     -3.506056
  H       1.897708      2.418031     -2.095649
24
Coordinates from ORCA-job Triclosan\Triclosan_B3LYP_STO-3G\Triclosan_B3LYP_STO-3G.orcainp E -1969.207808192683
  C      -0.771672      1.290569      0.142214
  C       0.505683      1.892388      0.193993
  C       1.645171      1.070869      0.137050
  C       1.544450     -0.359034      0.063296
  C       0.263691     -0.965192      0.014345
  C      -0.863106     -0.116643      0.052491
  Cl     -2.512457     -0.875788     -0.011034
  O       2.733616     -1.095877      0.045816
  O       3.024050      1.475478      0.294337
  C       3.460794      2.521761     -0.572198
  C       4.682850      3.161632     -0.200429
  C       5.253502      4.178995     -0.988564
  C       4.580990      4.557646     -2.172375
  C       3.375973      3.938599     -2.572594
  C       2.820601      2.920668     -1.775493
  Cl      5.290993      5.868830     -3.198783
  Cl      5.508917      2.636873      1.319314
  H      -1.679396      1.906103      0.175686
  H       0.602749      2.984634      0.268836
  H       0.159140     -2.055645     -0.049996
  H       3.413538     -0.312894      0.101548
  H       6.192943      4.662320     -0.685960
  H       2.877307      4.244732     -3.502876
  H       1.889114      2.427897     -2.084456
24
Coordinates from ORCA-job Triclosan\Triclosan_B3LYP_STO-3G\Triclosan_B3LYP_STO-3G.orcainp E -1969.207809362513
  C      -0.772121      1.290371      0.142481
  C       0.504776      1.892690      0.196633
  C       1.645000      1.072103      0.139637
  C       1.545084     -0.357565      0.063199
  C       0.264691     -0.964591      0.011538
  C      -0.862411     -0.116770      0.050078
  Cl     -2.511083     -0.876808     -0.016573
  O       2.734059     -1.094649      0.046197
  O       3.023321      1.478418      0.298409
  C       3.460064      2.522775     -0.570393
  C       4.683156      3.161877     -0.200667
  C       5.254513      4.177732     -0.990143
  C       4.581089      4.555630     -2.173694
  C       3.374954      3.937824     -2.572025
  C       2.819138      2.921357     -1.773307
  Cl      5.291790      5.864513     -3.202384
  Cl      5.509697      2.637784      1.318988
  H      -1.680194      1.905319      0.176065
  H       0.601321      2.984844      0.273321
  H       0.161136     -2.054967     -0.055318
  H       3.414544     -0.312579      0.103604
  H       6.194720      4.660316     -0.688854
  H       2.875594      4.243718     -3.501994
  H       1.886601      2.429581     -2.080629
24
Coordinates from ORCA-job Triclosan\Triclosan_B3LYP_STO-3G\Triclosan_B3LYP_STO-3G.orcainp E -1969.207809677946
  C      -0.771970      1.290673      0.142943
  C       0.504951      1.892828      0.197319
  C       1.645148      1.072162      0.139907
  C       1.545022     -0.357378      0.062911
  C       0.264579     -0.964499      0.011101
  C      -0.862271     -0.116437      0.049936
  Cl     -2.511081     -0.876088     -0.017038
  O       2.733746     -1.094726      0.045581
  O       3.023440      1.478605      0.298900
  C       3.460056      2.522574     -0.570407
  C       4.682879      3.162223     -0.200636
  C       5.254322      4.178136     -0.989937
  C       4.580826      4.555399     -2.173719
  C       3.375113      3.937124     -2.572351
  C       2.819378      2.920579     -1.773611
  Cl      5.291197      5.864378     -3.202501
  Cl      5.509051      2.638543      1.319384
  H      -1.680036      1.905598      0.176905
  H       0.601915      2.984896      0.274751
  H       0.161203     -2.054842     -0.056328
  H       3.414601     -0.313022      0.103069
  H       6.194261      4.661097     -0.688482
  H       2.875973      4.242799     -3.502497
  H       1.887140      2.428297     -2.081029
