24
Coordinates from ORCA-job Triclosan\Triclosan_B3LYP_STO-3G\Triclosan_B3LYP_STO-3G.orcainp E -1969.207809677946
  C          -0.77197045810078      1.29067327515675      0.14294332790844
  C           0.50495071407390      1.89282836280664      0.19731871185108
  C           1.64514763777354      1.07216220973434      0.13990733020535
  C           1.54502223436368     -0.35737781084987      0.06291066060335
  C           0.26457910572468     -0.96449914363309      0.01110114726409
  C          -0.86227121128854     -0.11643737063928      0.04993639459589
  Cl         -2.51108127047936     -0.87608847614982     -0.01703809955957
  O           2.73374551525961     -1.09472643811832      0.04558055303447
  O           3.02343987994084      1.47860497879294      0.29889984571056
  C           3.46005601867182      2.52257419370550     -0.57040741758744
  C           4.68287904506712      3.16222308731205     -0.20063648317212
  C           5.25432221179812      4.17813581733168     -0.98993660828720
  C           4.58082552216697      4.55539949342782     -2.17371930435779
  C           3.37511307499860      3.93712352863431     -2.57235068045460
  C           2.81937802784198      2.92057879676776     -1.77361053303744
  Cl          5.29119678782957      5.86437839982177     -3.20250055300578
  Cl          5.50905062864090      2.63854340166888      1.31938398596289
  H          -1.68003604139683      1.90559828908643      0.17690475373258
  H           0.60191471983528      2.98489588433329      0.27475065966093
  H           0.16120280510869     -2.05484179059704     -0.05632767144047
  H           3.41460148120327     -0.31302192969706      0.10306870851927
  H           6.19426115267393      4.66109656320294     -0.68848221092415
  H           2.87597275990432      4.24279935413381     -3.50249737226395
  H           1.88713965838870      2.42829732376755     -2.08102914495840
