24
Coordinates from ORCA-job Triclosan\Triclosan_PBE_STO-3G\Triclosan_PBE_STO-3G.orcainp E -1968.458766819714
  C      -0.498380      1.456720      0.098960
  C       0.836360      1.861870      0.139870
  C       1.858500      0.909640      0.076920
  C       1.527050     -0.445530      0.103270
  C       0.193990     -0.859110      0.065880
  C      -0.813110      0.098450      0.043280
  Cl     -2.458040     -0.389950     -0.044300
  O       2.486230     -1.418040      0.159240
  O       3.195400      1.239150      0.004080
  C       3.558400      2.365550     -0.713420
  C       4.599240      3.161890     -0.218400
  C       4.975450      4.330570     -0.889960
  C       4.312220      4.697790     -2.056160
  C       3.302130      3.893950     -2.580580
  C       2.944190      2.713370     -1.925990
  Cl      4.745030      6.153320     -2.864750
  Cl      5.438900      2.741890      1.230850
  H      -1.286770      2.204470      0.098980
  H       1.062640      2.922230      0.193350
  H      -0.040810     -1.921090      0.052350
  H       3.329410     -0.977310      0.373690
  H       5.776510      4.951890     -0.496780
  H       2.786880      4.180330     -3.495300
  H       2.168020      2.086870     -2.360910
24
Coordinates from ORCA-job Triclosan\Triclosan_PBE_STO-3G\Triclosan_PBE_STO-3G.orcainp E -1968.489556662496
  C      -0.569827      1.429192      0.112109
  C       0.772006      1.856149      0.129652
  C       1.824177      0.908333      0.072832
  C       1.514481     -0.489326      0.114954
  C       0.161438     -0.916382      0.098589
  C      -0.868734      0.046123      0.078074
  Cl     -2.563578     -0.482328      0.018746
  O       2.505255     -1.469708      0.160460
  O       3.198395      1.245580      0.016194
  C       3.563855      2.395230     -0.715692
  C       4.636545      3.189241     -0.213417
  C       5.041968      4.359210     -0.895227
  C       4.379372      4.738024     -2.082906
  C       3.338464      3.939267     -2.612720
  C       2.950542      2.762687     -1.945704
  Cl      4.862021      6.225453     -2.922683
  Cl      5.477071      2.726622      1.280494
  H      -1.380480      2.173967      0.115652
  H       0.991354      2.934773      0.168360
  H      -0.066146     -1.993396      0.098524
  H       3.384508     -0.964643      0.337388
  H       5.865692      4.972800     -0.495589
  H       2.827926      4.233770     -3.544242
  H       2.153136      2.138281     -2.379678
24
Coordinates from ORCA-job Triclosan\Triclosan_PBE_STO-3G\Triclosan_PBE_STO-3G.orcainp E -1968.496133009805
  C      -0.607108      1.408585      0.077308
  C       0.732401      1.855323      0.062554
  C       1.800161      0.918763      0.045639
  C       1.521386     -0.497051      0.121256
  C       0.166669     -0.941578      0.136435
  C      -0.875384      0.014312      0.099474
  Cl     -2.588113     -0.554148      0.087535
  O       2.535687     -1.469561      0.164073
  O       3.192732      1.258868      0.050950
  C       3.539844      2.426039     -0.684179
  C       4.648564      3.197343     -0.201731
  C       5.090532      4.348565     -0.896647
  C       4.420489      4.733671     -2.085303
  C       3.337585      3.968823     -2.597017
  C       2.912008      2.815505     -1.907049
  Cl      4.958215      6.213030     -2.959796
  Cl      5.495077      2.692356      1.303498
  H      -1.434301      2.138250      0.069242
  H       0.944263      2.939023      0.059749
  H      -0.048032     -2.023337      0.170021
  H       3.401011     -0.904342      0.234671
  H       5.942462      4.936863     -0.511113
  H       2.831207      4.271938     -3.530743
  H       2.082087      2.211679     -2.314658
24
Coordinates from ORCA-job Triclosan\Triclosan_PBE_STO-3G\Triclosan_PBE_STO-3G.orcainp E -1968.498737771152
  C      -0.685624      1.358951      0.121111
  C       0.636537      1.856456      0.060186
  C       1.733631      0.958574      0.024189
  C       1.518873     -0.467271      0.087913
  C       0.184104     -0.967526      0.156223
  C      -0.888253     -0.046099      0.163320
  Cl     -2.587877     -0.688363      0.233825
  O       2.590012     -1.378862      0.069570
  O       3.133946      1.312355      0.089703
  C       3.498707      2.473347     -0.661931
  C       4.627726      3.216221     -0.177124
  C       5.140828      4.326980     -0.886141
  C       4.514295      4.696681     -2.103667
  C       3.408968      3.969669     -2.622152
  C       2.911931      2.861071     -1.906620
  Cl      5.149544      6.127490     -3.016307
  Cl      5.410212      2.702784      1.371695
  H      -1.543376      2.052240      0.146148
  H       0.814518      2.946353      0.050946
  H       0.011368     -2.056913      0.193170
  H       3.400655     -0.728698     -0.013812
  H       6.007240      4.889633     -0.493980
  H       2.947581      4.263843     -3.582021
  H       2.063895      2.280004     -2.310074
24
Coordinates from ORCA-job Triclosan\Triclosan_PBE_STO-3G\Triclosan_PBE_STO-3G.orcainp E -1968.499550026275
  C      -0.721368      1.330971      0.096409
  C       0.588325      1.864775      0.048452
  C       1.700854      0.991179      0.039454
  C       1.526979     -0.437512      0.088623
  C       0.208057     -0.978067      0.147400
  C      -0.882137     -0.078964      0.149571
  Cl     -2.567606     -0.764689      0.219941
  O       2.645210     -1.287677      0.079252
  O       3.101128      1.350047      0.147820
  C       3.483223      2.490325     -0.629436
  C       4.650709      3.194396     -0.180793
  C       5.192753      4.276849     -0.909605
  C       4.546217      4.657493     -2.113000
  C       3.394664      3.979651     -2.592233
  C       2.871321      2.898515     -1.853382
  Cl      5.217944      6.051157     -3.059487
  Cl      5.445884      2.658339      1.355520
  H      -1.599236      1.998578      0.104664
  H       0.742655      2.958556      0.021810
  H       0.061623     -2.071018      0.183375
  H       3.402578     -0.576820     -0.047015
  H       6.090429      4.807523     -0.545002
  H       2.919011      4.288884     -3.540169
  H       1.980224      2.356429     -2.217998
24
Coordinates from ORCA-job Triclosan\Triclosan_PBE_STO-3G\Triclosan_PBE_STO-3G.orcainp E -1968.500426292791
  C      -0.761010      1.300329      0.107632
  C       0.532014      1.877827      0.094436
  C       1.662273      1.032776      0.079214
  C       1.533803     -0.401918      0.081326
  C       0.233681     -0.987187      0.098267
  C      -0.876713     -0.114065      0.115784
  Cl     -2.542921     -0.846681      0.148337
  O       2.699265     -1.184569      0.078769
  O       3.060841      1.403972      0.210324
  C       3.467534      2.510687     -0.604890
  C       4.671443      3.173311     -0.193362
  C       5.241607      4.223653     -0.945626
  C       4.579916      4.612619     -2.137840
  C       3.390041      3.980638     -2.579472
  C       2.839894      2.930649     -1.814754
  Cl      5.285969      5.961689     -3.120942
  Cl      5.474973      2.623060      1.332272
  H      -1.660365      1.937954      0.118738
  H       0.655880      2.975617      0.090463
  H       0.115041     -2.083591      0.099143
  H       3.406583     -0.413034      0.011708
  H       6.167401      4.722394     -0.608781
  H       2.905045      4.299803     -3.518942
  H       1.917243      2.422986     -2.147633
24
Coordinates from ORCA-job Triclosan\Triclosan_PBE_STO-3G\Triclosan_PBE_STO-3G.orcainp E -1968.501125113726
  C      -0.810508      1.255667      0.115546
  C       0.452710      1.898213      0.178131
  C       1.609329      1.097924      0.151008
  C       1.551830     -0.341021      0.084773
  C       0.286006     -0.990096      0.017693
  C      -0.857766     -0.159302      0.039310
  Cl     -2.488733     -0.957170     -0.032346
  O       2.780727     -1.009807      0.091029
  O       3.000046      1.495792      0.315405
  C       3.446527      2.536636     -0.564111
  C       4.707840      3.125313     -0.219492
  C       5.308708      4.125587     -1.013663
  C       4.614411      4.538321     -2.179538
  C       3.367916      3.980092     -2.552726
  C       2.787556      2.977367     -1.746414
  Cl      5.355033      5.819935     -3.218728
  Cl      5.542202      2.546504      1.274537
  H      -1.740866      1.846434      0.125153
  H       0.525481      2.999090      0.230544
  H       0.210204     -2.087875     -0.045350
  H       3.392999     -0.153369      0.171788
  H       6.279241      4.568297     -0.730168
  H       2.858690      4.320281     -3.471380
  H       1.819856      2.526105     -2.026828
24
Coordinates from ORCA-job Triclosan\Triclosan_PBE_STO-3G\Triclosan_PBE_STO-3G.orcainp E -1968.501270506411
  C      -0.803213      1.264359      0.111920
  C       0.465825      1.895709      0.167718
  C       1.618165      1.087280      0.139276
  C       1.547820     -0.352688      0.087560
  C       0.274658     -0.989235      0.033522
  C      -0.864827     -0.151010      0.046365
  Cl     -2.501842     -0.936265     -0.019248
  O       2.765115     -1.041656      0.094584
  O       3.007924      1.485754      0.304841
  C       3.456120      2.529243     -0.570777
  C       4.708384      3.131875     -0.215730
  C       5.297939      4.143877     -1.004378
  C       4.606709      4.553956     -2.173337
  C       3.371346      3.976328     -2.557515
  C       2.800662      2.962227     -1.758654
  Cl      5.333827      5.853369     -3.199896
  Cl      5.544077      2.560758      1.280416
  H      -1.727940      1.864152      0.122824
  H       0.545515      2.995843      0.222994
  H       0.189441     -2.087114     -0.017501
  H       3.397167     -0.194744      0.141392
  H       6.261049      4.598591     -0.713676
  H       2.862213      4.311890     -3.478085
  H       1.843306      2.496421     -2.050444
24
Coordinates from ORCA-job Triclosan\Triclosan_PBE_STO-3G\Triclosan_PBE_STO-3G.orcainp E -1968.501316418836
  C      -0.807884      1.260290      0.106867
  C       0.458165      1.897520      0.172862
  C       1.613769      1.093803      0.144910
  C       1.551251     -0.347012      0.090056
  C       0.280816     -0.988001      0.025898
  C      -0.863845     -0.155187      0.033309
  Cl     -2.496657     -0.947310     -0.049126
  O       2.773028     -1.026247      0.105223
  O       3.000126      1.499851      0.321952
  C       3.456119      2.532573     -0.563158
  C       4.716648      3.124450     -0.218639
  C       5.304994      4.131689     -1.014673
  C       4.607883      4.547885     -2.178330
  C       3.365459      3.976969     -2.551666
  C       2.794078      2.968095     -1.746547
  Cl      5.334718      5.843062     -3.210416
  Cl      5.563104      2.548084      1.269223
  H      -1.735423      1.856077      0.116842
  H       0.530798      2.997710      0.237980
  H       0.198949     -2.086187     -0.027859
  H       3.396200     -0.170274      0.163523
  H       6.274811      4.578738     -0.733608
  H       2.850185      4.314611     -3.468273
  H       1.832149      2.507732     -2.032179
24
Coordinates from ORCA-job Triclosan\Triclosan_PBE_STO-3G\Triclosan_PBE_STO-3G.orcainp E -1968.501328557660
  C      -0.813514      1.255479      0.106179
  C       0.449096      1.898844      0.180412
  C       1.608578      1.100887      0.151457
  C       1.554769     -0.339946      0.089573
  C       0.287550     -0.986246      0.016551
  C      -0.862215     -0.159989      0.024080
  Cl     -2.490301     -0.960874     -0.070223
  O       2.781230     -1.010761      0.107391
  O       2.992075      1.513650      0.337825
  C       3.453246      2.538503     -0.554852
  C       4.720925      3.120201     -0.219404
  C       5.311484      4.120018     -1.023184
  C       4.611717      4.539441     -2.184046
  C       3.362137      3.977256     -2.547624
  C       2.787229      2.976264     -1.735250
  Cl      5.343323      5.825824     -3.224077
  Cl      5.572865      2.540986      1.264269
  H      -1.744128      1.846621      0.116235
  H       0.514788      2.999185      0.251878
  H       0.210312     -2.084632     -0.042530
  H       3.397157     -0.149217      0.176485
  H       6.287260      4.559274     -0.750057
  H       2.843713      4.315325     -3.462393
  H       1.820146      2.522826     -2.014527
24
Coordinates from ORCA-job Triclosan\Triclosan_PBE_STO-3G\Triclosan_PBE_STO-3G.orcainp E -1968.501331226365
  C      -0.814711      1.254365      0.105687
  C       0.447024      1.898930      0.182625
  C       1.607693      1.102664      0.153664
  C       1.555963     -0.337944      0.089050
  C       0.289533     -0.985403      0.012981
  C      -0.861460     -0.161103      0.020991
  Cl     -2.488123     -0.964617     -0.076007
  O       2.782952     -1.007921      0.108028
  O       2.990256      1.517997      0.343219
  C       3.452263      2.540545     -0.552063
  C       4.721902      3.119476     -0.219617
  C       5.313192      4.116745     -1.025984
  C       4.612677      4.536641     -2.186098
  C       3.360679      3.977514     -2.546226
  C       2.784820      2.979228     -1.731266
  Cl      5.346150      5.819577     -3.229169
  Cl      5.574936      2.540512      1.263526
  H      -1.745981      1.844475      0.115529
  H       0.510982      2.999308      0.255084
  H       0.213507     -2.083788     -0.047956
  H       3.397919     -0.146423      0.181452
  H       6.290572      4.553914     -0.755174
  H       2.841064      4.315599     -3.460311
  H       1.815631      2.528628     -2.007793
24
Coordinates from ORCA-job Triclosan\Triclosan_PBE_STO-3G\Triclosan_PBE_STO-3G.orcainp E -1968.501332347681
  C      -0.817353      1.252325      0.107154
  C       0.442899      1.899265      0.187007
  C       1.605485      1.105819      0.156601
  C       1.557129     -0.334307      0.087622
  C       0.292234     -0.984490      0.008840
  C      -0.860584     -0.163115      0.018570
  Cl     -2.485016     -0.970703     -0.081125
  O       2.785652     -1.001473      0.105714
  O       2.987049      1.524055      0.349843
  C       3.450592      2.542905     -0.549174
  C       4.722293      3.118774     -0.219467
  C       5.315608      4.112599     -1.028492
  C       4.615106      4.532348     -2.188529
  C       3.360690      3.976892     -2.545672
  C       2.782841      2.982030     -1.727960
  Cl      5.351926      5.810378     -3.235235
  Cl      5.574911      2.540562      1.264174
  H      -1.749872      1.840403      0.117788
  H       0.504282      2.999615      0.262059
  H       0.218650     -2.082848     -0.055368
  H       3.398230     -0.138958      0.180896
  H       6.294549      4.547377     -0.759571
  H       2.840621      4.314869     -3.459505
  H       1.811519      2.534598     -2.002000
24
Coordinates from ORCA-job Triclosan\Triclosan_PBE_STO-3G\Triclosan_PBE_STO-3G.orcainp E -1968.501332865822
  C      -0.816496      1.253071      0.106503
  C       0.444066      1.899221      0.186862
  C       1.606395      1.105289      0.156938
  C       1.557110     -0.334825      0.088058
  C       0.291853     -0.984370      0.008665
  C      -0.860424     -0.162337      0.017826
  Cl     -2.485194     -0.968938     -0.082743
  O       2.784756     -1.003648      0.107031
  O       2.987989      1.523625      0.349952
  C       3.450716      2.542706     -0.549122
  C       4.722243      3.119225     -0.219708
  C       5.315139      4.113345     -1.028649
  C       4.614100      4.532760     -2.188489
  C       3.359904      3.976849     -2.545471
  C       2.782632      2.981622     -1.727774
  Cl      5.350174      5.811039     -3.235297
  Cl      5.575378      2.541188      1.263666
  H      -1.748659      1.841695      0.116702
  H       0.506158      2.999533      0.261947
  H       0.217867     -2.082679     -0.055625
  H       3.398912     -0.142535      0.183466
  H       6.293910      4.548516     -0.759844
  H       2.839478      4.314782     -3.459100
  H       1.811434      2.533787     -2.001625
24
Coordinates from ORCA-job Triclosan\Triclosan_PBE_STO-3G\Triclosan_PBE_STO-3G.orcainp E -1968.501332973171
  C      -0.816336      1.253233      0.106504
  C       0.444300      1.899269      0.186687
  C       1.606516      1.105167      0.156806
  C       1.556973     -0.334941      0.088198
  C       0.291677     -0.984478      0.008989
  C      -0.860443     -0.162176      0.017983
  Cl     -2.485403     -0.968387     -0.082599
  O       2.784526     -1.003875      0.107215
  O       2.988165      1.523329      0.349607
  C       3.450774      2.542421     -0.549402
  C       4.722164      3.119242     -0.219804
  C       5.315023      4.113658     -1.028400
  C       4.613901      4.533011     -2.188276
  C       3.360001      3.976725     -2.545613
  C       2.782822      2.981199     -1.728170
  Cl      5.349597      5.811797     -3.234741
  Cl      5.575262      2.541082      1.263573
  H      -1.748450      1.841933      0.116735
  H       0.506668      2.999554      0.261928
  H       0.217687     -2.082791     -0.055149
  H       3.398818     -0.142756      0.183090
  H       6.293648      4.549028     -0.759394
  H       2.839666      4.314697     -3.459283
  H       1.811886      2.532982     -2.002316
