33
Coordinates from ORCA-job Dexketoprofen\Dexketoprofen_B3LYP_def2-TZVP\Dexketoprofen_B3LYP_def2-TZVP.orcainp E -843.674304959578
  H       1.096620     -0.204250      0.326760
  C       2.137970     -0.111080     -0.010520
  C       2.126490      0.628040     -1.353530
  C       2.826660      0.751010      1.050360
  O       3.428370      0.075300      2.055840
  O       2.792360      1.973800      1.053180
  C       2.717610     -1.512460     -0.178170
  C       1.934000     -2.645630      0.113490
  C       2.467640     -3.936280     -0.026370
  C       3.771140     -4.099040     -0.505320
  C       4.554480     -2.984060     -0.794800
  C       4.035830     -1.700720     -0.623710
  C       1.687330     -5.163750      0.284290
  O       1.872990     -6.170870     -0.395240
  C       0.709640     -5.216690      1.402780
  C       0.854150     -4.432050      2.553800
  C      -0.089410     -4.514770      3.579380
  C      -1.163440     -5.397910      3.472030
  C      -1.292130     -6.207760      2.344340
  C      -0.355680     -6.121550      1.313020
  H       1.607840      1.589440     -1.266130
  H       1.616620      0.042150     -2.125850
  H       3.141630      0.843600     -1.706810
  H       3.413980     -0.896960      1.965340
  H       0.900040     -2.519110      0.430070
  H       4.177980     -5.098100     -0.655070
  H       5.569680     -3.118220     -1.162310
  H       4.671990     -0.847090     -0.857040
  H       1.702840     -3.767060      2.680650
  H       0.018440     -3.899190      4.469450
  H      -1.893260     -5.465960      4.274870
  H      -2.118240     -6.910830      2.269520
  H      -0.455990     -6.765520      0.440940
33
Coordinates from ORCA-job Dexketoprofen\Dexketoprofen_B3LYP_def2-TZVP\Dexketoprofen_B3LYP_def2-TZVP.orcainp E -843.677443684363
  H       1.116967     -0.264942      0.381642
  C       2.138710     -0.146094      0.005654
  C       2.052827      0.590738     -1.340449
  C       2.826118      0.730328      1.056506
  O       3.460189      0.103101      2.060377
  O       2.803373      1.938839      1.038534
  C       2.741716     -1.534236     -0.148021
  C       1.988066     -2.666822      0.173023
  C       2.511671     -3.952350     -0.003697
  C       3.807919     -4.104007     -0.502184
  C       4.573639     -2.984045     -0.800754
  C       4.044664     -1.708610     -0.626094
  C       1.718240     -5.182903      0.285527
  O       1.884067     -6.182675     -0.408164
  C       0.715759     -5.205968      1.388352
  C       0.849754     -4.409321      2.530872
  C      -0.085837     -4.495102      3.557938
  C      -1.169271     -5.361977      3.444381
  C      -1.308626     -6.158948      2.309801
  C      -0.366488     -6.087970      1.290239
  H       1.521118      1.536832     -1.233825
  H       1.521467     -0.014293     -2.075671
  H       3.044312      0.813801     -1.738695
  H       3.447011     -0.862549      1.973997
  H       0.972365     -2.545010      0.527398
  H       4.216325     -5.094696     -0.650993
  H       5.581796     -3.105509     -1.176508
  H       4.659775     -0.850003     -0.868757
  H       1.694708     -3.743902      2.647438
  H       0.027783     -3.884614      4.445095
  H      -1.903272     -5.418442      4.239131
  H      -2.147992     -6.837622      2.222350
  H      -0.472683     -6.714598      0.414799
33
Coordinates from ORCA-job Dexketoprofen\Dexketoprofen_B3LYP_def2-TZVP\Dexketoprofen_B3LYP_def2-TZVP.orcainp E -843.677535570034
  H       1.132048     -0.252658      0.339368
  C       2.153546     -0.134735     -0.037116
  C       2.066922      0.591531     -1.388592
  C       2.825688      0.749072      1.018214
  O       3.372152      0.143826      2.082273
  O       2.786670      1.952216      1.000961
  C       2.755704     -1.524067     -0.154193
  C       1.994629     -2.645481      0.166031
  C       2.505658     -3.936579      0.006277
  C       3.808793     -4.100349     -0.469949
  C       4.587192     -2.989017     -0.759208
  C       4.063412     -1.709986     -0.607905
  C       1.678401     -5.158893      0.253933
  O       1.858215     -6.157955     -0.433725
  C       0.693847     -5.192321      1.376772
  C       0.877639     -4.459670      2.554595
  C      -0.026632     -4.578620      3.603395
  C      -1.135592     -5.408786      3.477236
  C      -1.329723     -6.137397      2.305368
  C      -0.414526     -6.040106      1.268073
  H       1.542418      1.539416     -1.285622
  H       1.525628     -0.024268     -2.105421
  H       3.058291      0.794682     -1.793702
  H       3.338616     -0.821392      2.003402
  H       0.978074     -2.509711      0.506891
  H       4.209511     -5.095230     -0.598878
  H       5.602693     -3.117900     -1.108167
  H       4.683117     -0.855098     -0.846043
  H       1.740659     -3.820531      2.673081
  H       0.132456     -4.021928      4.517103
  H      -1.846973     -5.488918      4.288954
  H      -2.192527     -6.782129      2.203630
  H      -0.559836     -6.610588      0.362205
33
Coordinates from ORCA-job Dexketoprofen\Dexketoprofen_B3LYP_def2-TZVP\Dexketoprofen_B3LYP_def2-TZVP.orcainp E -843.678042562869
  H       1.131323     -0.264205      0.362039
  C       2.145704     -0.141728     -0.034175
  C       2.032118      0.577459     -1.385775
  C       2.826285      0.751534      1.007896
  O       3.389809      0.153742      2.070132
  O       2.848396      1.955164      0.943529
  C       2.756781     -1.527119     -0.150953
  C       2.007228     -2.653669      0.178320
  C       2.528278     -3.941576      0.024585
  C       3.829005     -4.096670     -0.462029
  C       4.596272     -2.980277     -0.761644
  C       4.063098     -1.704638     -0.613628
  C       1.708724     -5.168445      0.279340
  O       1.860970     -6.154618     -0.430910
  C       0.706388     -5.190630      1.387148
  C       0.892562     -4.482017      2.579185
  C      -0.026378     -4.597396      3.615520
  C      -1.150991     -5.402081      3.464513
  C      -1.347669     -6.107130      2.278324
  C      -0.418964     -6.012875      1.253323
  H       1.509562      1.525648     -1.274216
  H       1.474298     -0.045563     -2.084557
  H       3.016142      0.774905     -1.812417
  H       3.330691     -0.813110      2.005686
  H       0.992725     -2.523453      0.530992
  H       4.235991     -5.090725     -0.587557
  H       5.611800     -3.101789     -1.115689
  H       4.672461     -0.843688     -0.861231
  H       1.767558     -3.861515      2.713797
  H       0.135922     -4.059177      4.540467
  H      -1.872167     -5.481556      4.268284
  H      -2.223959     -6.730916      2.156120
  H      -0.563795     -6.565455      0.334822
33
Coordinates from ORCA-job Dexketoprofen\Dexketoprofen_B3LYP_def2-TZVP\Dexketoprofen_B3LYP_def2-TZVP.orcainp E -843.678197335096
  H       1.135597     -0.278641      0.398879
  C       2.145013     -0.153985     -0.011197
  C       2.015156      0.572540     -1.356248
  C       2.842303      0.731594      1.026402
  O       3.370288      0.122397      2.103550
  O       2.898862      1.935978      0.950823
  C       2.755762     -1.538579     -0.147670
  C       2.011000     -2.671349      0.179194
  C       2.536105     -3.955963      0.010691
  C       3.834837     -4.103934     -0.483891
  C       4.595868     -2.982723     -0.784318
  C       4.059578     -1.709339     -0.623901
  C       1.724553     -5.184230      0.276324
  O       1.886566     -6.179562     -0.418038
  C       0.716550     -5.192943      1.377229
  C       0.883026     -4.439730      2.544079
  C      -0.042404     -4.533564      3.577675
  C      -1.153224     -5.361477      3.447079
  C      -1.331513     -6.108938      2.283679
  C      -0.397024     -6.034251      1.261173
  H       1.498568      1.522930     -1.230118
  H       1.443214     -0.044645     -2.049990
  H       2.994302      0.767874     -1.796217
  H       3.278682     -0.843151      2.047185
  H       0.999546     -2.547722      0.546983
  H       4.243686     -5.097018     -0.619105
  H       5.609048     -3.098480     -1.148995
  H       4.663616     -0.843856     -0.872046
  H       1.746168     -3.797010      2.659294
  H       0.104182     -3.959565      4.484297
  H      -1.878702     -5.425411      4.248995
  H      -2.197630     -6.750616      2.177529
  H      -0.525409     -6.620200      0.359912
33
Coordinates from ORCA-job Dexketoprofen\Dexketoprofen_B3LYP_def2-TZVP\Dexketoprofen_B3LYP_def2-TZVP.orcainp E -843.678344781643
  H       1.140185     -0.270114      0.400632
  C       2.147326     -0.149557     -0.017053
  C       2.013246      0.569913     -1.364699
  C       2.855193      0.734894      1.014126
  O       3.315872      0.130685      2.126192
  O       2.980566      1.931740      0.903702
  C       2.755637     -1.535815     -0.149438
  C       2.007336     -2.668564      0.171768
  C       2.533226     -3.953587      0.006364
  C       3.834968     -4.102068     -0.480017
  C       4.599186     -2.981299     -0.774393
  C       4.063277     -1.707568     -0.616006
  C       1.717847     -5.180554      0.266538
  O       1.883932     -6.177062     -0.424583
  C       0.715649     -5.192174      1.372645
  C       0.896203     -4.452765      2.546244
  C      -0.023146     -4.550301      3.585153
  C      -1.141461     -5.367874      3.453313
  C      -1.333488     -6.102065      2.283442
  C      -0.404892     -6.024454      1.255660
  H       1.505085      1.524845     -1.238519
  H       1.430468     -0.047916     -2.048995
  H       2.990728      0.754134     -1.812767
  H       3.172454     -0.829475      2.092580
  H       0.992876     -2.544126      0.530714
  H       4.242280     -5.096060     -0.613753
  H       5.614612     -3.097145     -1.132866
  H       4.668251     -0.841490     -0.859716
  H       1.766177     -3.819143      2.660492
  H       0.134727     -3.987063      4.496672
  H      -1.861637     -5.435104      4.259733
  H      -2.205267     -6.736014      2.177011
  H      -0.541246     -6.600424      0.349065
33
Coordinates from ORCA-job Dexketoprofen\Dexketoprofen_B3LYP_def2-TZVP\Dexketoprofen_B3LYP_def2-TZVP.orcainp E -843.678521622093
  H       1.167512     -0.261620      0.440115
  C       2.156797     -0.147920     -0.021129
  C       1.977131      0.547490     -1.373991
  C       2.917092      0.734803      0.972025
  O       3.177961      0.187671      2.178092
  O       3.221220      1.886692      0.773786
  C       2.762495     -1.536119     -0.150179
  C       2.014562     -2.670652      0.167331
  C       2.546659     -3.954591      0.006758
  C       3.849591     -4.099269     -0.476495
  C       4.612526     -2.976598     -0.767414
  C       4.073609     -1.704629     -0.609073
  C       1.731557     -5.182140      0.266788
  O       1.879594     -6.171128     -0.438338
  C       0.727459     -5.191050      1.371764
  C       0.935192     -4.494229      2.567012
  C       0.015171     -4.593976      3.605447
  C      -1.129428     -5.369924      3.451771
  C      -1.347172     -6.063514      2.261499
  C      -0.417941     -5.986155      1.234330
  H       1.488977      1.512094     -1.241864
  H       1.355781     -0.076214     -2.017769
  H       2.937746      0.706827     -1.864646
  H       2.889111     -0.738504      2.211144
  H       0.996931     -2.548031      0.515975
  H       4.256235     -5.093522     -0.608852
  H       5.629659     -3.088376     -1.121858
  H       4.674090     -0.834561     -0.848631
  H       1.828002     -3.896536      2.693621
  H       0.194532     -4.064291      4.532847
  H      -1.849360     -5.438818      4.258067
  H      -2.238973     -6.665835      2.140109
  H      -0.568148     -6.530946      0.310996
33
Coordinates from ORCA-job Dexketoprofen\Dexketoprofen_B3LYP_def2-TZVP\Dexketoprofen_B3LYP_def2-TZVP.orcainp E -843.678748600467
  H       1.189093     -0.253388      0.484640
  C       2.163472     -0.146101     -0.007540
  C       1.951025      0.536552     -1.361054
  C       2.969522      0.731338      0.951557
  O       3.130578      0.244457      2.201179
  O       3.423843      1.816574      0.684992
  C       2.764382     -1.536972     -0.142744
  C       2.012350     -2.671106      0.163693
  C       2.543878     -3.954782     -0.002502
  C       3.847973     -4.099108     -0.481632
  C       4.613490     -2.976002     -0.764156
  C       4.075999     -1.704544     -0.599079
  C       1.726456     -5.181641      0.251470
  O       1.890599     -6.177410     -0.441172
  C       0.726498     -5.194977      1.360315
  C       0.935119     -4.492089      2.551992
  C       0.018322     -4.591425      3.593269
  C      -1.122914     -5.373166      3.445548
  C      -1.340658     -6.073564      2.259374
  C      -0.414881     -5.996504      1.229102
  H       1.476153      1.507882     -1.225444
  H       1.305440     -0.087101     -1.980242
  H       2.898331      0.682548     -1.880501
  H       2.738602     -0.638674      2.287641
  H       0.993642     -2.548796      0.508791
  H       4.252908     -5.093517     -0.617485
  H       5.631657     -3.086903     -1.115655
  H       4.678016     -0.833083     -0.829743
  H       1.825561     -3.889675      2.671891
  H       0.197307     -4.056270      4.517522
  H      -1.841105     -5.440883      4.253450
  H      -2.230272     -6.680072      2.143688
  H      -0.564216     -6.545170      0.308074
33
Coordinates from ORCA-job Dexketoprofen\Dexketoprofen_B3LYP_def2-TZVP\Dexketoprofen_B3LYP_def2-TZVP.orcainp E -843.678864786773
  H       1.198824     -0.250485      0.509541
  C       2.165519     -0.143951      0.005203
  C       1.935988      0.532388     -1.349500
  C       2.995946      0.736058      0.938835
  O       3.175025      0.265601      2.190909
  O       3.479649      1.799934      0.641683
  C       2.768034     -1.534827     -0.133458
  C       2.017345     -2.666898      0.178613
  C       2.544384     -3.950940      0.003301
  C       3.845301     -4.096970     -0.484432
  C       4.610206     -2.974756     -0.771077
  C       4.074708     -1.702828     -0.601363
  C       1.728512     -5.178686      0.256043
  O       1.897702     -6.174552     -0.436543
  C       0.724548     -5.197295      1.361322
  C       0.916599     -4.481971      2.548424
  C      -0.005156     -4.584626      3.584717
  C      -1.135276     -5.382289      3.436235
  C      -1.336640     -6.094335      2.254542
  C      -0.406036     -6.013020      1.228965
  H       1.461327      1.504797     -1.216251
  H       1.284929     -0.092477     -1.961504
  H       2.876509      0.678920     -1.881451
  H       2.758511     -0.602380      2.309175
  H       1.001829     -2.543998      0.532923
  H       4.249646     -5.090867     -0.625014
  H       5.625214     -3.087437     -1.131004
  H       4.677255     -0.833060     -0.837352
  H       1.797669     -3.866591      2.671981
  H       0.160177     -4.040175      4.506017
  H      -1.858298     -5.451957      4.239707
  H      -2.217565     -6.713304      2.138113
  H      -0.546215     -6.570592      0.311941
33
Coordinates from ORCA-job Dexketoprofen\Dexketoprofen_B3LYP_def2-TZVP\Dexketoprofen_B3LYP_def2-TZVP.orcainp E -843.678966258083
  H       1.229180     -0.249184      0.565800
  C       2.175321     -0.144624      0.025954
  C       1.897927      0.514036     -1.328249
  C       3.056418      0.739033      0.906054
  O       3.183682      0.351462      2.192052
  O       3.632060      1.732901      0.538999
  C       2.779512     -1.536009     -0.119669
  C       2.030944     -2.666760      0.197735
  C       2.553435     -3.950877      0.011038
  C       3.849531     -4.097335     -0.490107
  C       4.612466     -2.975326     -0.782055
  C       4.079475     -1.703195     -0.603939
  C       1.739277     -5.179723      0.262697
  O       1.905395     -6.171959     -0.436532
  C       0.727345     -5.201174      1.360932
  C       0.906748     -4.485641      2.549877
  C      -0.023252     -4.591720      3.578211
  C      -1.149678     -5.392814      3.419698
  C      -1.338903     -6.104100      2.235850
  C      -0.400008     -6.019114      1.218171
  H       1.431142      1.490656     -1.193743
  H       1.223345     -0.115096     -1.909807
  H       2.818268      0.650969     -1.896804
  H       2.683834     -0.458736      2.376887
  H       1.020083     -2.543834      0.565095
  H       4.252565     -5.090645     -0.637633
  H       5.623256     -3.088758     -1.153406
  H       4.680549     -0.834211     -0.846847
  H       1.784171     -3.867074      2.683412
  H       0.131998     -4.047839      4.501562
  H      -1.879642     -5.464863      4.216692
  H      -2.216949     -6.725627      2.111316
  H      -0.533327     -6.576391      0.299999
33
Coordinates from ORCA-job Dexketoprofen\Dexketoprofen_B3LYP_def2-TZVP\Dexketoprofen_B3LYP_def2-TZVP.orcainp E -843.678985615217
  H       1.225517     -0.257273      0.557995
  C       2.174797     -0.147105      0.024859
  C       1.903513      0.518635     -1.327254
  C       3.050604      0.731974      0.915142
  O       3.163641      0.345930      2.202331
  O       3.631481      1.725021      0.553013
  C       2.781077     -1.537666     -0.124399
  C       2.031998     -2.668659      0.191765
  C       2.553792     -3.952961      0.006611
  C       3.849547     -4.099756     -0.495940
  C       4.612379     -2.977930     -0.788610
  C       4.080462     -1.705170     -0.609694
  C       1.740279     -5.181617      0.261974
  O       1.905158     -6.174827     -0.435828
  C       0.729211     -5.200245      1.361137
  C       0.908529     -4.481910      2.548305
  C      -0.020693     -4.585862      3.577505
  C      -1.146827     -5.388061      3.422045
  C      -1.336243     -6.102192      2.239886
  C      -0.397925     -6.019147      1.221514
  H       1.434821      1.493774     -1.190101
  H       1.232722     -0.108237     -1.915732
  H       2.826752      0.658897     -1.890051
  H       2.653003     -0.458349      2.383907
  H       1.022343     -2.545367      0.562185
  H       4.253139     -5.092924     -0.642459
  H       5.623158     -3.091973     -1.159708
  H       4.682518     -0.837185     -0.852829
  H       1.785105     -3.861837      2.680433
  H       0.134796     -4.039614      4.499411
  H      -1.875920     -5.458819      4.219906
  H      -2.214035     -6.724332      2.116895
  H      -0.532528     -6.578780      0.305026
33
Coordinates from ORCA-job Dexketoprofen\Dexketoprofen_B3LYP_def2-TZVP\Dexketoprofen_B3LYP_def2-TZVP.orcainp E -843.678995244507
  H       1.221968     -0.264092      0.549921
  C       2.174134     -0.148768      0.022947
  C       1.909506      0.524821     -1.326384
  C       3.047381      0.722901      0.923004
  O       3.135630      0.342420      2.213292
  O       3.647268      1.706135      0.563557
  C       2.781338     -1.538868     -0.130718
  C       2.032065     -2.670410      0.185490
  C       2.553411     -3.954895      0.001885
  C       3.849431     -4.101796     -0.500537
  C       4.612106     -2.980037     -0.793525
  C       4.080803     -1.706645     -0.615139
  C       1.740300     -5.183324      0.260002
  O       1.905346     -6.178043     -0.435257
  C       0.731122     -5.199764      1.360880
  C       0.911860     -4.479708      2.546690
  C      -0.015963     -4.581679      3.577412
  C      -1.142469     -5.384118      3.425303
  C      -1.333293     -6.100414      2.244576
  C      -0.396268     -6.019113      1.224783
  H       1.440756      1.499325     -1.185550
  H       1.240844     -0.098588     -1.921039
  H       2.835558      0.666800     -1.883933
  H       2.605096     -0.449677      2.391444
  H       1.022255     -2.546848      0.555344
  H       4.253481     -5.094882     -0.646489
  H       5.623044     -3.094484     -1.164101
  H       4.684088     -0.839488     -0.857807
  H       1.788429     -3.859268      2.677230
  H       0.140871     -4.033685      4.498071
  H      -1.870119     -5.453640      4.224563
  H      -2.211099     -6.722902      2.123495
  H      -0.532711     -6.580838      0.309832
33
Coordinates from ORCA-job Dexketoprofen\Dexketoprofen_B3LYP_def2-TZVP\Dexketoprofen_B3LYP_def2-TZVP.orcainp E -843.678997759790
  H       1.218855     -0.266572      0.544020
  C       2.173229     -0.149405      0.021674
  C       1.914737      0.528561     -1.326587
  C       3.044970      0.717918      0.927397
  O       3.118036      0.341164      2.219550
  O       3.658290      1.693486      0.569307
  C       2.780709     -1.539449     -0.133485
  C       2.031731     -2.671359      0.183133
  C       2.553080     -3.955813     -0.000062
  C       3.849039     -4.102586     -0.502901
  C       4.611119     -2.980762     -0.796673
  C       4.079882     -1.707213     -0.618373
  C       1.740322     -5.184217      0.259224
  O       1.905331     -6.179536     -0.435101
  C       0.732314     -5.199918      1.361155
  C       0.914079     -4.479198      2.546370
  C      -0.012935     -4.580319      3.577938
  C      -1.139749     -5.382639      3.427421
  C      -1.331561     -6.099760      2.247326
  C      -0.395341     -6.019239      1.226713
  H       1.446586      1.503177     -1.184313
  H       1.247469     -0.092430     -1.925331
  H       2.843124      0.670852     -1.880120
  H       2.576045     -0.443496      2.395868
  H       1.021674     -2.547813      0.552372
  H       4.253307     -5.095592     -0.648961
  H       5.621826     -3.095116     -1.167959
  H       4.683316     -0.840290     -0.861460
  H       1.790839     -3.858842      2.676094
  H       0.144796     -4.031633      4.498037
  H      -1.866703     -5.451418      4.227376
  H      -2.209447     -6.722333      2.127202
  H      -0.532799     -6.581780      0.312392
33
Coordinates from ORCA-job Dexketoprofen\Dexketoprofen_B3LYP_def2-TZVP\Dexketoprofen_B3LYP_def2-TZVP.orcainp E -843.678999087217
  H       1.217540     -0.267685      0.541908
  C       2.172763     -0.149991      0.021559
  C       1.917434      0.530623     -1.325996
  C       3.046031      0.714041      0.929020
  O       3.103836      0.345698      2.224335
  O       3.675355      1.678572      0.568792
  C       2.780247     -1.540135     -0.134791
  C       2.032075     -2.672314      0.182992
  C       2.553471     -3.956628     -0.000702
  C       3.848961     -4.103142     -0.504947
  C       4.610203     -2.981152     -0.799833
  C       4.078805     -1.707658     -0.621209
  C       1.741070     -5.185105      0.259218
  O       1.906067     -6.180714     -0.434712
  C       0.733472     -5.200522      1.361532
  C       0.915653     -4.479592      2.546548
  C      -0.011263     -4.580202      3.578272
  C      -1.138346     -5.382199      3.428166
  C      -1.330510     -6.099608      2.248309
  C      -0.394427     -6.019588      1.227536
  H       1.450705      1.505800     -1.182472
  H       1.249808     -0.088328     -1.926442
  H       2.846753      0.672332     -1.878024
  H       2.549230     -0.429643      2.402354
  H       1.022181     -2.548924      0.552772
  H       4.253319     -5.096051     -0.651488
  H       5.620437     -3.095147     -1.172563
  H       4.681836     -0.840718     -0.865136
  H       1.792606     -3.859471      2.676077
  H       0.146833     -4.031262      4.498160
  H      -1.865232     -5.450429      4.228236
  H      -2.208515     -6.722057      2.128368
  H      -0.532228     -6.582372      0.313402
33
Coordinates from ORCA-job Dexketoprofen\Dexketoprofen_B3LYP_def2-TZVP\Dexketoprofen_B3LYP_def2-TZVP.orcainp E -843.678999842400
  H       1.216716     -0.268127      0.540413
  C       2.172545     -0.150538      0.021382
  C       1.919462      0.531623     -1.325921
  C       3.046800      0.711662      0.929761
  O       3.092677      0.350989      2.227742
  O       3.687839      1.667699      0.567689
  C       2.780065     -1.540744     -0.135301
  C       2.032759     -2.673016      0.183938
  C       2.554156     -3.957207     -0.000535
  C       3.849006     -4.103556     -0.506474
  C       4.609548     -2.981442     -0.802527
  C       4.078000     -1.708065     -0.623490
  C       1.741917     -5.185700      0.259689
  O       1.906639     -6.181314     -0.434330
  C       0.734396     -5.201060      1.362094
  C       0.917159     -4.480771      2.547421
  C      -0.009849     -4.581221      3.579086
  C      -1.137526     -5.382278      3.428572
  C      -1.330234     -6.099017      2.248412
  C      -0.394078     -6.019245      1.227694
  H       1.453705      1.507209     -1.181703
  H       1.251619     -0.085992     -1.927496
  H       2.849417      0.673000     -1.876885
  H       2.529339     -0.417607      2.407525
  H       1.023283     -2.549732      0.554913
  H       4.253233     -5.096431     -0.653553
  H       5.619273     -3.095093     -1.176737
  H       4.680390     -0.840989     -0.868424
  H       1.794582     -3.861347      2.677122
  H       0.148720     -4.032804      4.499205
  H      -1.864517     -5.450237      4.228574
  H      -2.208689     -6.720770      2.128144
  H      -0.532182     -6.581446      0.313243
33
Coordinates from ORCA-job Dexketoprofen\Dexketoprofen_B3LYP_def2-TZVP\Dexketoprofen_B3LYP_def2-TZVP.orcainp E -843.678938263050
  H       1.212181     -0.273366      0.532209
  C       2.171751     -0.156280      0.022290
  C       1.934804      0.538793     -1.322187
  C       3.058644      0.689022      0.935071
  O       2.989184      0.417327      2.253685
  O       3.814720      1.550017      0.557700
  C       2.779908     -1.546873     -0.138597
  C       2.040120     -2.679807      0.193168
  C       2.560783     -3.963048      0.000721
  C       3.849470     -4.108064     -0.521238
  C       4.604000     -2.984888     -0.827290
  C       4.071713     -1.712405     -0.643457
  C       1.749814     -5.191590      0.263525
  O       1.911971     -6.187150     -0.431490
  C       0.742757     -5.206616      1.366519
  C       0.931092     -4.493557      2.555388
  C       0.003235     -4.593110      3.586446
  C      -1.130291     -5.384800      3.431397
  C      -1.328351     -6.093931      2.247664
  C      -0.391444     -6.015869      1.227534
  H       1.478166      1.518078     -1.171132
  H       1.263409     -0.066986     -1.931727
  H       2.868816      0.676732     -1.866339
  H       2.337935     -0.274051      2.448536
  H       1.035019     -2.557407      0.576118
  H       4.252127     -5.100713     -0.673920
  H       5.608917     -3.095714     -1.215081
  H       4.668485     -0.844298     -0.897194
  H       1.813074     -3.881095      2.687409
  H       0.166363     -4.050683      4.509312
  H      -1.858164     -5.450926      4.230776
  H      -2.211293     -6.708593      2.123752
  H      -0.532742     -6.571719      0.309672
33
Coordinates from ORCA-job Dexketoprofen\Dexketoprofen_B3LYP_def2-TZVP\Dexketoprofen_B3LYP_def2-TZVP.orcainp E -843.679001066237
  H       1.212907     -0.271355      0.531464
  C       2.172127     -0.152789      0.019641
  C       1.929334      0.536709     -1.326130
  C       3.046339      0.701930      0.935315
  O       3.047379      0.366791      2.240884
  O       3.727116      1.629419      0.571478
  C       2.779782     -1.542971     -0.138813
  C       2.034450     -2.675269      0.184400
  C       2.555471     -3.959328     -0.001981
  C       3.848383     -4.105587     -0.512928
  C       4.607397     -2.983334     -0.812135
  C       4.075966     -1.710056     -0.631761
  C       1.743719     -5.187652      0.260235
  O       1.907301     -6.183720     -0.433466
  C       0.737258     -5.202278      1.363659
  C       0.923071     -4.483978      2.549717
  C      -0.003049     -4.583866      3.582254
  C      -1.132767     -5.382006      3.431764
  C      -1.328507     -6.096597      2.250830
  C      -0.393224     -6.017637      1.229237
  H       1.465595      1.512966     -1.179218
  H       1.262949     -0.075836     -1.934455
  H       2.862776      0.678549     -1.870797
  H       2.454075     -0.378497      2.422341
  H       1.026471     -2.552007      0.559395
  H       4.251980     -5.098507     -0.661387
  H       5.615749     -3.096412     -1.190211
  H       4.676955     -0.842824     -0.879092
  H       1.802091     -3.866722      2.679014
  H       0.158008     -4.037156      4.502959
  H      -1.859082     -5.449292      4.232441
  H      -2.208536     -6.716118      2.130547
  H      -0.533317     -6.578140      0.314040
33
Coordinates from ORCA-job Dexketoprofen\Dexketoprofen_B3LYP_def2-TZVP\Dexketoprofen_B3LYP_def2-TZVP.orcainp E -843.679001097142
  H       1.218836     -0.268641      0.543785
  C       2.173613     -0.151453      0.022847
  C       1.917954      0.530311     -1.324302
  C       3.051787      0.710694      0.927538
  O       3.082933      0.366415      2.230343
  O       3.709358      1.652687      0.558337
  C       2.781386     -1.541595     -0.134316
  C       2.035281     -2.673691      0.187744
  C       2.556135     -3.957846      0.001199
  C       3.849600     -4.104187     -0.508170
  C       4.609370     -2.982056     -0.806255
  C       4.077980     -1.708775     -0.626225
  C       1.743851     -5.186305      0.261226
  O       1.908510     -6.181730     -0.433148
  C       0.735386     -5.201945      1.362790
  C       0.918181     -4.483478      2.549222
  C      -0.009776     -4.584252      3.579992
  C      -1.138370     -5.383603      3.427311
  C      -1.331146     -6.098327      2.245974
  C      -0.394015     -6.018414      1.226162
  H       1.452703      1.506096     -1.179378
  H       1.248686     -0.087120     -1.924483
  H       2.846722      0.671670     -1.877202
  H       2.507369     -0.391428      2.416731
  H       1.026935     -2.550474      0.561750
  H       4.253136     -5.097093     -0.656712
  H       5.618085     -3.095560     -1.183169
  H       4.679270     -0.841512     -0.873020
  H       1.796253     -3.865252      2.680237
  H       0.148750     -4.037423      4.501057
  H      -1.866156     -5.451758      4.226574
  H      -2.210435     -6.718588      2.124128
  H      -0.532000     -6.578935      0.310673
33
Coordinates from ORCA-job Dexketoprofen\Dexketoprofen_B3LYP_def2-TZVP\Dexketoprofen_B3LYP_def2-TZVP.orcainp E -843.679002049057
  H       1.216809     -0.269519      0.539352
  C       2.173179     -0.151909      0.021665
  C       1.922082      0.532161     -1.325232
  C       3.049604      0.708083      0.930123
  O       3.069804      0.367582      2.234080
  O       3.715206      1.645098      0.562528
  C       2.781025     -1.542062     -0.135620
  C       2.035027     -2.674195      0.186600
  C       2.555832     -3.958350      0.000006
  C       3.849118     -4.104719     -0.509856
  C       4.608796     -2.982585     -0.808056
  C       4.077530     -1.709270     -0.627725
  C       1.743614     -5.186701      0.260687
  O       1.907671     -6.182246     -0.433661
  C       0.735976     -5.202056      1.363008
  C       0.920322     -4.484262      2.549599
  C      -0.006812     -4.584870      3.581135
  C      -1.136146     -5.383282      3.429055
  C      -1.330484     -6.097302      2.247545
  C      -0.394161     -6.017614      1.226963
  H       1.457091      1.508035     -1.179956
  H       1.254091     -0.083872     -1.928257
  H       2.852568      0.673761     -1.875113
  H       2.487731     -0.385635      2.418997
  H       1.026800     -2.550930      0.560897
  H       4.252579     -5.097657     -0.658475
  H       5.617411     -3.096016     -1.185291
  H       4.678763     -0.842029     -0.874619
  H       1.799010     -3.866797      2.680122
  H       0.152993     -4.038616      4.502322
  H      -1.863273     -5.451265      4.228933
  H      -2.210314     -6.716883      2.126143
  H      -0.533272     -6.577648      0.311340
33
Coordinates from ORCA-job Dexketoprofen\Dexketoprofen_B3LYP_def2-TZVP\Dexketoprofen_B3LYP_def2-TZVP.orcainp E -843.679002191221
  H       1.216139     -0.270268      0.537588
  C       2.173223     -0.152457      0.021451
  C       1.924391      0.532935     -1.325262
  C       3.049717      0.706070      0.931301
  O       3.058138      0.373139      2.237291
  O       3.725791      1.635185      0.562719
  C       2.781162     -1.542633     -0.136149
  C       2.035403     -2.674771      0.186579
  C       2.555982     -3.958920     -0.000648
  C       3.848873     -4.105308     -0.511546
  C       4.608398     -2.983174     -0.810022
  C       4.077337     -1.709838     -0.629105
  C       1.743718     -5.187171      0.260309
  O       1.907323     -6.182747     -0.434091
  C       0.736529     -5.202369      1.363053
  C       0.922059     -4.485406      2.549957
  C      -0.004593     -4.585976      3.581934
  C      -1.134616     -5.383430      3.429960
  C      -1.330140     -6.096581      2.248120
  C      -0.394285     -6.016999      1.227093
  H       1.459741      1.508940     -1.179592
  H       1.256806     -0.082190     -1.929668
  H       2.855679      0.674559     -1.873716
  H       2.467332     -0.373059      2.423038
  H       1.027479     -2.551483      0.561702
  H       4.252080     -5.098272     -0.660673
  H       5.616742     -3.096533     -1.187999
  H       4.678394     -0.842577     -0.876232
  H       1.801285     -3.868646      2.680288
  H       0.156159     -4.040419      4.503374
  H      -1.861357     -5.451352      4.230190
  H      -2.210501     -6.715422      2.126797
  H      -0.534219     -6.576397      0.311200
33
Coordinates from ORCA-job Dexketoprofen\Dexketoprofen_B3LYP_def2-TZVP\Dexketoprofen_B3LYP_def2-TZVP.orcainp E -843.679002416384
  H       1.217150     -0.269909      0.539760
  C       2.173404     -0.152229      0.021953
  C       1.922142      0.531831     -1.324944
  C       3.050411      0.707614      0.929986
  O       3.065452      0.371751      2.235160
  O       3.721092      1.640414      0.560844
  C       2.781381     -1.542335     -0.135480
  C       2.035439     -2.674451      0.186880
  C       2.556065     -3.958615     -0.000158
  C       3.849161     -4.104994     -0.510529
  C       4.608836     -2.982861     -0.808717
  C       4.077717     -1.709529     -0.627987
  C       1.743749     -5.186907      0.260484
  O       1.907649     -6.182435     -0.433918
  C       0.736191     -5.202223      1.362882
  C       0.921124     -4.485107      2.549786
  C      -0.005880     -4.585747      3.581436
  C      -1.135679     -5.383463      3.429132
  C      -1.330617     -6.096771      2.247288
  C      -0.394407     -6.017099      1.226595
  H       1.457131      1.507694     -1.179579
  H       1.254093     -0.084213     -1.927894
  H       2.852569      0.673444     -1.874890
  H       2.478861     -0.377649      2.421330
  H       1.027398     -2.551189      0.561667
  H       4.252452     -5.097954     -0.659510
  H       5.617336     -3.096295     -1.186265
  H       4.678879     -0.842266     -0.874892
  H       1.800162     -3.868147      2.680396
  H       0.154377     -4.040064      4.502885
  H      -1.862699     -5.451479      4.229103
  H      -2.210827     -6.715781      2.125726
  H      -0.533941     -6.576605      0.310711
