30
Coordinates from ORCA-job Diclofenac\Diclofenac_PBE_def2-TZVP\Diclofenac_PBE_def2-TZVP.orcainp E -1664.779800386264
  O       3.205320      0.772220     -3.481650
  C       3.019920     -0.423630     -2.872600
  O       2.604390     -1.407650     -3.475150
  C       3.320480     -0.407060     -1.391560
  C       4.773730     -0.128810     -1.082440
  C       5.669430     -1.213420     -1.106510
  C       7.032330     -1.021230     -0.890210
  C       7.514530      0.252740     -0.623930
  C       6.634980      1.334310     -0.584780
  C       5.265760      1.173910     -0.860410
  N       4.372990      2.291240     -0.867070
  C       4.785160      3.665540     -0.982660
  C       5.631810      4.129340     -2.012640
  Cl      6.084050      3.138420     -3.359060
  C       6.114230      5.444790     -2.012140
  C       5.706520      6.346220     -1.032240
  C       4.791760      5.941540     -0.063850
  C       4.335910      4.617880     -0.041360
  Cl      3.210470      4.170110      1.195600
  H       3.589430      1.448890     -2.883090
  H       3.044050     -1.389420     -0.980930
  H       2.647280      0.304940     -0.903990
  H       5.309890     -2.220540     -1.316240
  H       7.715650     -1.865180     -0.932480
  H       8.576730      0.411960     -0.457710
  H       7.049620      2.313470     -0.361060
  H       3.794580      2.213950     -0.021130
  H       6.806030      5.773050     -2.785740
  H       6.084520      7.366220     -1.038980
  H       4.444790      6.659400      0.676500
30
Coordinates from ORCA-job Diclofenac\Diclofenac_PBE_def2-TZVP\Diclofenac_PBE_def2-TZVP.orcainp E -1664.785905012518
  O       3.165311      0.883407     -3.458960
  C       3.000890     -0.324433     -2.875954
  O       2.617099     -1.276972     -3.531299
  C       3.331314     -0.380916     -1.393496
  C       4.797483     -0.122382     -1.097959
  C       5.686126     -1.208537     -1.118636
  C       7.049771     -1.031308     -0.879712
  C       7.539345      0.243965     -0.597486
  C       6.666030      1.331536     -0.566761
  C       5.300249      1.169421     -0.846749
  N       4.392243      2.278111     -0.858970
  C       4.819045      3.623708     -0.956921
  C       5.656338      4.083232     -1.993357
  Cl      6.124566      3.038089     -3.299008
  C       6.093154      5.409818     -2.039327
  C       5.658539      6.324816     -1.081101
  C       4.767936      5.916749     -0.088580
  C       4.357040      4.584284     -0.031208
  Cl      3.255583      4.113062      1.228371
  H       3.503679      1.549026     -2.819352
  H       3.056347     -1.377377     -1.022892
  H       2.674659      0.331107     -0.871078
  H       5.309141     -2.211655     -1.327318
  H       7.726470     -1.886791     -0.910262
  H       8.602128      0.396676     -0.403679
  H       7.071000      2.317448     -0.332820
  H       3.748169      2.192478     -0.064073
  H       6.764776      5.732103     -2.835060
  H       6.000913      7.358776     -1.119585
  H       4.400994      6.635759      0.643724
30
Coordinates from ORCA-job Diclofenac\Diclofenac_PBE_def2-TZVP\Diclofenac_PBE_def2-TZVP.orcainp E -1664.788235550845
  O       3.121235      0.985770     -3.422720
  C       3.009773     -0.250135     -2.888073
  O       2.627517     -1.167274     -3.587796
  C       3.347509     -0.372973     -1.406847
  C       4.817727     -0.127282     -1.108005
  C       5.700647     -1.214760     -1.107402
  C       7.060529     -1.048198     -0.836031
  C       7.551225      0.228070     -0.542215
  C       6.685351      1.322143     -0.537133
  C       5.328803      1.159697     -0.844582
  N       4.413364      2.265928     -0.881579
  C       4.846759      3.595179     -0.968648
  C       5.654892      4.077564     -2.021356
  Cl      6.094886      3.028492     -3.339594
  C       6.060501      5.410503     -2.081897
  C       5.628031      6.316131     -1.112773
  C       4.775577      5.889475     -0.093805
  C       4.398146      4.551140     -0.029963
  Cl      3.342391      4.036552      1.260474
  H       3.414740      1.630386     -2.736154
  H       3.074521     -1.383698     -1.081848
  H       2.697773      0.328640     -0.858620
  H       5.310604     -2.213919     -1.315795
  H       7.730022     -1.910889     -0.844366
  H       8.608867      0.375616     -0.313821
  H       7.076252      2.313309     -0.297109
  H       3.707970      2.175834     -0.142701
  H       6.697608      5.740548     -2.902868
  H       5.942634      7.359067     -1.161846
  H       4.410485      6.592284      0.655561
30
Coordinates from ORCA-job Diclofenac\Diclofenac_PBE_def2-TZVP\Diclofenac_PBE_def2-TZVP.orcainp E -1664.789483876087
  O       3.089017      1.079566     -3.327508
  C       2.975951     -0.184093     -2.857620
  O       2.651925     -1.070963     -3.623909
  C       3.348027     -0.395806     -1.393583
  C       4.820082     -0.143337     -1.111645
  C       5.706461     -1.226144     -1.083580
  C       7.065525     -1.051939     -0.811808
  C       7.552388      0.232369     -0.545966
  C       6.686044      1.326097     -0.569120
  C       5.332264      1.149989     -0.870952
  N       4.416325      2.255714     -0.938571
  C       4.859625      3.579164     -0.997785
  C       5.680289      4.080645     -2.033888
  Cl      6.172604      3.021203     -3.328816
  C       6.073334      5.416170     -2.085637
  C       5.617641      6.313255     -1.118915
  C       4.766307      5.872366     -0.105111
  C       4.408900      4.529528     -0.051739
  Cl      3.350050      3.983821      1.229577
  H       3.368743      1.681124     -2.593379
  H       3.096940     -1.429119     -1.130513
  H       2.705333      0.269371     -0.795158
  H       5.311426     -2.228311     -1.268037
  H       7.734931     -1.913883     -0.796427
  H       8.607415      0.387146     -0.311520
  H       7.063837      2.327966     -0.355033
  H       3.653253      2.160529     -0.261340
  H       6.715705      5.749887     -2.900712
  H       5.918166      7.360599     -1.161893
  H       4.387830      6.560286      0.651078
30
Coordinates from ORCA-job Diclofenac\Diclofenac_PBE_def2-TZVP\Diclofenac_PBE_def2-TZVP.orcainp E -1664.790573220205
  O       3.138324      1.156488     -3.280105
  C       3.001716     -0.126900     -2.871875
  O       2.609542     -0.966245     -3.662156
  C       3.353756     -0.410305     -1.414669
  C       4.818243     -0.160655     -1.104682
  C       5.701452     -1.244496     -1.034774
  C       7.057726     -1.065956     -0.752367
  C       7.545308      0.223206     -0.520911
  C       6.682997      1.319030     -0.582095
  C       5.330114      1.137510     -0.884870
  N       4.418745      2.244462     -0.974001
  C       4.863453      3.572106     -1.020739
  C       5.649198      4.094841     -2.072868
  Cl      6.123160      3.051066     -3.387584
  C       6.027149      5.434979     -2.121631
  C       5.594565      6.316017     -1.130112
  C       4.785269      5.854348     -0.091916
  C       4.443859      4.506739     -0.045114
  Cl      3.435298      3.931625      1.264848
  H       3.485572      1.705722     -2.529074
  H       3.103411     -1.456970     -1.209170
  H       2.701065      0.221184     -0.790955
  H       5.304662     -2.249136     -1.200395
  H       7.724519     -1.928481     -0.706029
  H       8.597829      0.381320     -0.278116
  H       7.057722      2.325915     -0.388959
  H       3.633767      2.149655     -0.321620
  H       6.638761      5.782594     -2.954153
  H       5.881493      7.367199     -1.171496
  H       4.427663      6.526341      0.688079
30
Coordinates from ORCA-job Diclofenac\Diclofenac_PBE_def2-TZVP\Diclofenac_PBE_def2-TZVP.orcainp E -1664.790839527249
  O       3.194160      1.136889     -3.301219
  C       2.994225     -0.131134     -2.878208
  O       2.540030     -0.962735     -3.645314
  C       3.349397     -0.417155     -1.421317
  C       4.810961     -0.164942     -1.103371
  C       5.691134     -1.249524     -0.999959
  C       7.047248     -1.065892     -0.720772
  C       7.538177      0.226091     -0.525488
  C       6.677463      1.321671     -0.608329
  C       5.322471      1.136613     -0.903585
  N       4.413517      2.243662     -1.002017
  C       4.857137      3.580982     -1.032220
  C       5.629463      4.114724     -2.087346
  Cl      6.096538      3.090002     -3.417553
  C       6.007964      5.455788     -2.124025
  C       5.592830      6.323330     -1.114368
  C       4.801212      5.848932     -0.068955
  C       4.455761      4.500674     -0.035274
  Cl      3.464269      3.919602      1.283176
  H       3.631059      1.670873     -2.574695
  H       3.100857     -1.466083     -1.224424
  H       2.690770      0.202251     -0.790801
  H       5.294614     -2.257168     -1.144005
  H       7.712511     -1.927717     -0.652467
  H       8.591764      0.387535     -0.291242
  H       7.055363      2.330304     -0.434600
  H       3.628986      2.144848     -0.348976
  H       6.608589      5.814232     -2.959726
  H       5.879267      7.374766     -1.147507
  H       4.458601      6.511778      0.725077
30
Coordinates from ORCA-job Diclofenac\Diclofenac_PBE_def2-TZVP\Diclofenac_PBE_def2-TZVP.orcainp E -1664.791042499217
  O       3.112336      1.141060     -3.268117
  C       2.969396     -0.138223     -2.865164
  O       2.514897     -0.975187     -3.627187
  C       3.354517     -0.433619     -1.416896
  C       4.815855     -0.167074     -1.105975
  C       5.701010     -1.246989     -0.989337
  C       7.056460     -1.054061     -0.713417
  C       7.542947      0.240975     -0.534956
  C       6.677218      1.331619     -0.627885
  C       5.322239      1.138306     -0.921463
  N       4.413170      2.241617     -1.047319
  C       4.854446      3.585886     -1.055642
  C       5.654625      4.119811     -2.087840
  Cl      6.153441      3.103857     -3.411425
  C       6.044710      5.458514     -2.103912
  C       5.615515      6.319442     -1.095166
  C       4.798077      5.842357     -0.071358
  C       4.437904      4.496556     -0.057632
  Cl      3.416318      3.920581      1.237737
  H       3.531872      1.690379     -2.534163
  H       3.127818     -1.490187     -1.233608
  H       2.688202      0.156794     -0.765862
  H       5.310481     -2.258393     -1.121179
  H       7.725508     -1.912134     -0.635453
  H       8.597390      0.409322     -0.309975
  H       7.054199      2.342733     -0.468135
  H       3.619293      2.138473     -0.406080
  H       6.669156      5.820062     -2.920538
  H       5.911558      7.368564     -1.112397
  H       4.445782      6.502158      0.720835
30
Coordinates from ORCA-job Diclofenac\Diclofenac_PBE_def2-TZVP\Diclofenac_PBE_def2-TZVP.orcainp E -1664.791150425797
  O       3.150982      1.146573     -3.289039
  C       2.980285     -0.125710     -2.880195
  O       2.550679     -0.964847     -3.653703
  C       3.355596     -0.428742     -1.429750
  C       4.813394     -0.164293     -1.100164
  C       5.696889     -1.244715     -0.979900
  C       7.050222     -1.053811     -0.692151
  C       7.536506      0.241039     -0.506717
  C       6.672881      1.332747     -0.607619
  C       5.320630      1.139953     -0.911679
  N       4.409195      2.241727     -1.045812
  C       4.851096      3.583318     -1.059815
  C       5.622926      4.121434     -2.110942
  Cl      6.068899      3.115588     -3.460887
  C       6.014946      5.459538     -2.128649
  C       5.615027      6.313366     -1.101489
  C       4.823552      5.830586     -0.059729
  C       4.460950      4.485709     -0.046494
  Cl      3.480669      3.895932      1.273747
  H       3.547658      1.698142     -2.544639
  H       3.128575     -1.486672     -1.254837
  H       2.681920      0.157598     -0.782066
  H       5.306399     -2.255442     -1.118093
  H       7.717617     -1.912977     -0.609922
  H       8.589342      0.408397     -0.273108
  H       7.049054      2.343481     -0.443020
  H       3.617203      2.142046     -0.400759
  H       6.615974      5.826322     -2.960424
  H       5.912691      7.362140     -1.118792
  H       4.494583      6.484773      0.747137
30
Coordinates from ORCA-job Diclofenac\Diclofenac_PBE_def2-TZVP\Diclofenac_PBE_def2-TZVP.orcainp E -1664.791242012454
  O       3.158122      1.123449     -3.308794
  C       2.969155     -0.137212     -2.877269
  O       2.503226     -0.976387     -3.629482
  C       3.354327     -0.427990     -1.426156
  C       4.812616     -0.160434     -1.103431
  C       5.697159     -1.238824     -0.976962
  C       7.050585     -1.045081     -0.691140
  C       7.535817      0.251916     -0.513712
  C       6.671034      1.342320     -0.621173
  C       5.319363      1.145178     -0.921472
  N       4.403417      2.244630     -1.057738
  C       4.848889      3.583831     -1.061061
  C       5.626521      4.122762     -2.107282
  Cl      6.084709      3.112621     -3.450058
  C       6.022346      5.459573     -2.119525
  C       5.618831      6.310931     -1.091376
  C       4.823751      5.826536     -0.052982
  C       4.460146      4.481986     -0.043869
  Cl      3.476806      3.887798      1.272243
  H       3.578338      1.675862     -2.578681
  H       3.127578     -1.484310     -1.241836
  H       2.683881      0.164896     -0.780675
  H       5.306787     -2.250670     -1.108212
  H       7.718491     -1.903341     -0.603378
  H       8.588433      0.421988     -0.280929
  H       7.045336      2.354946     -0.462943
  H       3.609154      2.141725     -0.415952
  H       6.628806      5.826890     -2.947123
  H       5.918827      7.359171     -1.103994
  H       4.493893      6.478441      0.755453
30
Coordinates from ORCA-job Diclofenac\Diclofenac_PBE_def2-TZVP\Diclofenac_PBE_def2-TZVP.orcainp E -1664.791276914391
  O       3.161609      1.127311     -3.304935
  C       2.962274     -0.130968     -2.874815
  O       2.472452     -0.962648     -3.620911
  C       3.356913     -0.431799     -1.428017
  C       4.813791     -0.161301     -1.104033
  C       5.699580     -1.238066     -0.971828
  C       7.052156     -1.041432     -0.683818
  C       7.535506      0.256795     -0.510932
  C       6.669375      1.345832     -0.623944
  C       5.318649      1.145355     -0.925209
  N       4.400391      2.242786     -1.072796
  C       4.847584      3.583387     -1.066605
  C       5.626074      4.123563     -2.111248
  Cl      6.084754      3.114655     -3.454210
  C       6.023529      5.459974     -2.119729
  C       5.621332      6.307976     -1.088276
  C       4.826968      5.821497     -0.050527
  C       4.460937      4.477157     -0.045040
  Cl      3.476193      3.881949      1.268783
  H       3.589860      1.675804     -2.575427
  H       3.134689     -1.490572     -1.252342
  H       2.684558      0.151527     -0.775272
  H       5.311219     -2.251066     -1.100181
  H       7.720975     -1.898496     -0.591347
  H       8.587654      0.429178     -0.277744
  H       7.042968      2.359336     -0.469966
  H       3.603252      2.137868     -0.434999
  H       6.630350      5.829660     -2.945992
  H       5.922172      7.356025     -1.097864
  H       4.498575      6.471915      0.759713
30
Coordinates from ORCA-job Diclofenac\Diclofenac_PBE_def2-TZVP\Diclofenac_PBE_def2-TZVP.orcainp E -1664.791290358365
  O       3.162186      1.109355     -3.321790
  C       2.954186     -0.141429     -2.877082
  O       2.446253     -0.976178     -3.608347
  C       3.358552     -0.434668     -1.431160
  C       4.814119     -0.159381     -1.107030
  C       5.700538     -1.234779     -0.966766
  C       7.051786     -1.035726     -0.674229
  C       7.533153      0.263424     -0.504142
  C       6.666245      1.351316     -0.624328
  C       5.317248      1.148347     -0.930417
  N       4.397252      2.244803     -1.088504
  C       4.847299      3.586366     -1.072981
  C       5.623155      4.130172     -2.117792
  Cl      6.072940      3.127783     -3.468004
  C       6.023940      5.465671     -2.119473
  C       5.628522      6.307281     -1.080073
  C       4.837958      5.816355     -0.041815
  C       4.467060      4.472928     -0.043393
  Cl      3.488284      3.871683      1.271054
  H       3.587794      1.667189     -2.596838
  H       3.139678     -1.493490     -1.251348
  H       2.684301      0.147529     -0.778854
  H       5.314376     -2.248963     -1.092382
  H       7.721081     -1.891774     -0.575966
  H       8.584176      0.437695     -0.267389
  H       7.039525      2.365206     -0.472492
  H       3.598642      2.138636     -0.452526
  H       6.628153      5.840201     -2.945451
  H       5.932174      7.354570     -1.083862
  H       4.515765      6.463078      0.773871
30
Coordinates from ORCA-job Diclofenac\Diclofenac_PBE_def2-TZVP\Diclofenac_PBE_def2-TZVP.orcainp E -1664.791295645347
  O       3.166762      1.113076     -3.318348
  C       2.953436     -0.137851     -2.875230
  O       2.443965     -0.969327     -3.608906
  C       3.358639     -0.435343     -1.430587
  C       4.814084     -0.159875     -1.106239
  C       5.701220     -1.234852     -0.967766
  C       7.052478     -1.035409     -0.675341
  C       7.533019      0.263852     -0.503726
  C       6.665601      1.351459     -0.623085
  C       5.316761      1.147989     -0.929216
  N       4.396491      2.244135     -1.087681
  C       4.846351      3.585237     -1.073484
  C       5.622657      4.128830     -2.118269
  Cl      6.073231      3.125221     -3.467475
  C       6.023748      5.464110     -2.120318
  C       5.628096      6.306242     -1.081357
  C       4.837111      5.815893     -0.043181
  C       4.466073      4.472606     -0.044501
  Cl      3.487179      3.871035      1.269921
  H       3.592757      1.668143     -2.592132
  H       3.139638     -1.494457     -1.253009
  H       2.684753      0.145981     -0.777116
  H       5.315498     -2.249071     -1.094540
  H       7.722324     -1.891190     -0.578482
  H       8.583886      0.438516     -0.266504
  H       7.038322      2.365516     -0.470802
  H       3.596874      2.138295     -0.452968
  H       6.628324      5.838198     -2.946237
  H       5.932085      7.353444     -1.085324
  H       4.514979      6.462797      0.772391
30
Coordinates from ORCA-job Diclofenac\Diclofenac_PBE_def2-TZVP\Diclofenac_PBE_def2-TZVP.orcainp E -1664.791296897215
  O       3.168078      1.112931     -3.318001
  C       2.952832     -0.137973     -2.874489
  O       2.441394     -0.968233     -3.608001
  C       3.358808     -0.435741     -1.430312
  C       4.814256     -0.160055     -1.106129
  C       5.701665     -1.234996     -0.969049
  C       7.053010     -1.035599     -0.676921
  C       7.533278      0.263533     -0.504133
  C       6.665653      1.351097     -0.622300
  C       5.316728      1.147785     -0.928372
  N       4.396762      2.244067     -1.085934
  C       4.846302      3.585099     -1.072808
  C       5.623206      4.128362     -2.117395
  Cl      6.074121      3.124316     -3.466242
  C       6.024407      5.463548     -2.119869
  C       5.628177      6.306382     -1.081698
  C       4.836157      5.816758     -0.044006
  C       4.465055      4.473529     -0.044875
  Cl      3.483914      3.873126      1.268528
  H       3.594061      1.667907     -2.591924
  H       3.139516     -1.494718     -1.252365
  H       2.685149      0.145916     -0.776872
  H       5.316163     -2.249177     -1.096720
  H       7.723101     -1.891323     -0.581391
  H       8.584117      0.438187     -0.266801
  H       7.038373      2.365008     -0.469150
  H       3.597011      2.138417     -0.451441
  H       6.629473      5.837265     -2.945593
  H       5.932280      7.353542     -1.086055
  H       4.513293      6.464244      0.770809
