24
Coordinates from ORCA-job Triclosan\Triclosan_B3LYP_def2-TZVP\Triclosan_B3LYP_def2-TZVP.orcainp E -1992.305743770077
  C          -0.72534023005045      1.31064429392048      0.34189375700537
  C           0.53901750023698      1.88225196262202      0.42528134311186
  C           1.66847259980400      1.10930486501334      0.20873999102169
  C           1.55929207161807     -0.25496807657350     -0.07608864392343
  C           0.29594990253502     -0.83651307562584     -0.15529487969426
  C          -0.82348637538144     -0.04451059498760      0.05027914503941
  Cl         -2.40907355686579     -0.78351653015781     -0.05552059768127
  O           2.65016978993802     -1.03444047249666     -0.27376097820041
  O           2.95126317389863      1.61940577196213      0.35889393852726
  C           3.43275445602029      2.55537924556204     -0.52148878426393
  C           4.57021007884433      3.27075560596328     -0.13517589921396
  C           5.13965483472048      4.21251939723966     -0.98015643840808
  C           4.56206334645558      4.43980614382712     -2.22159916014479
  C           3.43551832297309      3.73895439927260     -2.62638037012039
  C           2.87568641059136      2.79633526686896     -1.77322664456914
  Cl          5.27424109195498      5.63161563127986     -3.28712818359535
  Cl          5.29097777424106      2.97991723960796      1.42397521476696
  H          -1.61136836689314      1.90677666539316      0.50691418922650
  H           0.64946321547796      2.93372916911697      0.65821103349872
  H           0.20817535857411     -1.89156501380184     -0.37551772396831
  H           3.45187750409760     -0.50407061849889     -0.14720162185148
  H           6.01769884490399      4.75872053855579     -0.66649139756455
  H           2.99556339436404      3.91807624514388     -3.59757574659948
  H           2.00065885794120      2.24431194079285     -2.08741154239893
