30
Coordinates from ORCA-job Diclofenac\Diclofenac_B3LYP_STO-3G\Diclofenac_B3LYP_STO-3G.orcainp E -1645.683639320998
  O       2.145510     -0.608850      0.521810
  C       2.634200     -1.807370      0.135430
  O       2.171620     -2.832390      0.621090
  C       3.656540     -1.732500     -0.958510
  C       4.961020     -1.039260     -0.615080
  C       6.125390     -1.840070     -0.610830
  C       7.390040     -1.279910     -0.475440
  C       7.516700      0.090580     -0.304380
  C       6.371650      0.891450     -0.258760
  C       5.082210      0.357920     -0.430940
  N       3.948790      1.203900     -0.533780
  C       3.840260      2.580580     -0.865850
  C       4.601990      3.196190     -1.884480
  Cl      5.540000      2.292920     -3.032550
  C       4.538230      4.578340     -2.117970
  C       3.678750      5.384230     -1.377960
  C       2.874760      4.802770     -0.405300
  C       2.959480      3.426470     -0.147200
  Cl      1.911080      2.791050      1.079920
  H       1.462030     -0.841080      1.189180
  H       3.209490     -1.276980     -1.849770
  H       3.865010     -2.770550     -1.243350
  H       6.053720     -2.915640     -0.766190
  H       8.276540     -1.910400     -0.524590
  H       8.501120      0.542950     -0.234210
  H       6.509610      1.961350     -0.117550
  H       3.126830      0.828830     -0.052320
  H       5.141460      5.025260     -2.906320
  H       3.621860      6.449980     -1.581600
  H       2.178040      5.431090      0.147430
30
Coordinates from ORCA-job Diclofenac\Diclofenac_B3LYP_STO-3G\Diclofenac_B3LYP_STO-3G.orcainp E -1645.709492772203
  O       2.131613     -0.573257      0.571140
  C       2.597835     -1.832472      0.166874
  O       2.143842     -2.881724      0.682156
  C       3.637281     -1.756458     -0.979394
  C       4.970373     -1.057851     -0.651644
  C       6.145205     -1.846195     -0.637569
  C       7.417340     -1.269840     -0.484822
  C       7.532924      0.119310     -0.310804
  C       6.377745      0.915945     -0.284274
  C       5.087564      0.354840     -0.470926
  N       3.924374      1.189831     -0.563373
  C       3.841089      2.574990     -0.875161
  C       4.631853      3.202278     -1.887432
  Cl      5.627669      2.247419     -3.022981
  C       4.573044      4.594190     -2.111751
  C       3.691879      5.399336     -1.369956
  C       2.858702      4.806900     -0.405760
  C       2.938451      3.422814     -0.156803
  Cl      1.852027      2.729797      1.079928
  H       1.439806     -0.774215      1.295802
  H       3.169638     -1.284442     -1.865915
  H       3.843143     -2.799432     -1.270006
  H       6.072154     -2.931366     -0.786958
  H       8.314807     -1.900429     -0.516908
  H       8.521687      0.586426     -0.217252
  H       6.490317      1.997549     -0.138265
  H       3.074465      0.794549     -0.086053
  H       5.200331      5.045798     -2.891331
  H       3.640286      6.477778     -1.562919
  H       2.146486      5.428792      0.152286
30
Coordinates from ORCA-job Diclofenac\Diclofenac_B3LYP_STO-3G\Diclofenac_B3LYP_STO-3G.orcainp E -1645.715371059842
  O       2.168321     -0.493176      0.519891
  C       2.591452     -1.797204      0.152977
  O       2.130338     -2.822238      0.710628
  C       3.636868     -1.760950     -1.014334
  C       4.983065     -1.072787     -0.693415
  C       6.153706     -1.862345     -0.634161
  C       7.424760     -1.287271     -0.438214
  C       7.538485      0.108455     -0.272822
  C       6.387903      0.914077     -0.303632
  C       5.103491      0.345568     -0.528693
  N       3.922297      1.168213     -0.604023
  C       3.855063      2.561251     -0.885160
  C       4.608801      3.211974     -1.920661
  Cl      5.591908      2.250382     -3.094224
  C       4.531572      4.604278     -2.135064
  C       3.665555      5.396440     -1.355834
  C       2.860981      4.789359     -0.370291
  C       2.962589      3.404969     -0.138621
  Cl      1.918066      2.667607      1.139752
  H       1.490873     -0.642346      1.272235
  H       3.166783     -1.281057     -1.896194
  H       3.830062     -2.813004     -1.285064
  H       6.071533     -2.950357     -0.765851
  H       8.319355     -1.923728     -0.419818
  H       8.523553      0.572357     -0.126039
  H       6.483440      1.996654     -0.151028
  H       3.078559      0.761812     -0.118076
  H       5.132807      5.062082     -2.933066
  H       3.600990      6.477697     -1.534086
  H       2.160752      5.394149      0.222818
30
Coordinates from ORCA-job Diclofenac\Diclofenac_B3LYP_STO-3G\Diclofenac_B3LYP_STO-3G.orcainp E -1645.718010035424
  O       2.175659     -0.394614      0.410686
  C       2.598632     -1.740567      0.168778
  O       2.150949     -2.709324      0.818765
  C       3.634993     -1.779339     -1.022911
  C       4.989815     -1.091175     -0.734328
  C       6.159039     -1.874381     -0.622896
  C       7.424532     -1.288762     -0.416605
  C       7.531850      0.114017     -0.303660
  C       6.384456      0.920135     -0.391551
  C       5.107491      0.333462     -0.614306
  N       3.905902      1.129933     -0.658918
  C       3.862222      2.531039     -0.883434
  C       4.613426      3.214931     -1.901227
  Cl      5.680452      2.262489     -3.028428
  C       4.524422      4.606244     -2.104547
  C       3.642711      5.378643     -1.321422
  C       2.842181      4.752579     -0.342203
  C       2.964183      3.368439     -0.130891
  Cl      1.934435      2.588011      1.153967
  H       1.525814     -0.450392      1.199514
  H       3.152512     -1.311974     -1.903871
  H       3.815230     -2.844324     -1.247332
  H       6.071768     -2.966554     -0.714588
  H       8.317973     -1.923067     -0.344509
  H       8.510800      0.583579     -0.131943
  H       6.459703      2.008760     -0.272603
  H       3.071840      0.690806     -0.155439
  H       5.133859      5.074547     -2.890316
  H       3.569618      6.462589     -1.481660
  H       2.137463      5.335131      0.267806
30
Coordinates from ORCA-job Diclofenac\Diclofenac_B3LYP_STO-3G\Diclofenac_B3LYP_STO-3G.orcainp E -1645.717851177137
  O       2.131318     -0.374262      0.240032
  C       2.595896     -1.723553      0.068168
  O       2.165912     -2.670820      0.753432
  C       3.665341     -1.760880     -1.097401
  C       5.013227     -1.089217     -0.748426
  C       6.168904     -1.881880     -0.580628
  C       7.423680     -1.306438     -0.300232
  C       7.532941      0.094129     -0.173701
  C       6.400530      0.911481     -0.323407
  C       5.133721      0.334873     -0.621410
  N       3.924255      1.119685     -0.670794
  C       3.890183      2.521703     -0.886800
  C       4.499175      3.200718     -2.001949
  Cl      5.374133      2.232725     -3.276930
  C       4.383113      4.587973     -2.212873
  C       3.610452      5.371818     -1.333728
  C       2.941337      4.758990     -0.253950
  C       3.088521      3.377420     -0.048713
  Cl      2.241236      2.618016      1.378586
  H       1.492584     -0.385490      1.039691
  H       3.207644     -1.265992     -1.976064
  H       3.843226     -2.823400     -1.332947
  H       6.074951     -2.972730     -0.682838
  H       8.306391     -1.947538     -0.175431
  H       8.501613      0.553781      0.070159
  H       6.468822      1.997085     -0.181227
  H       3.099906      0.662954     -0.128326
  H       4.877671      5.040120     -3.084078
  H       3.515018      6.453732     -1.497317
  H       2.322231      5.345855      0.439030
30
Coordinates from ORCA-job Diclofenac\Diclofenac_B3LYP_STO-3G\Diclofenac_B3LYP_STO-3G.orcainp E -1645.717863214733
  O       2.188527     -0.414120      0.402174
  C       2.641268     -1.751759      0.143887
  O       2.283627     -2.715528      0.844188
  C       3.631825     -1.742226     -1.083103
  C       4.992124     -1.084194     -0.773705
  C       6.141518     -1.887511     -0.611170
  C       7.396477     -1.322341     -0.317130
  C       7.511357      0.074332     -0.169783
  C       6.385785      0.899826     -0.322455
  C       5.119919      0.337357     -0.647582
  N       3.918176      1.126954     -0.750448
  C       3.891905      2.534075     -0.931331
  C       4.558516      3.242200     -1.992502
  Cl      5.507782      2.317704     -3.237507
  C       4.445062      4.633024     -2.178831
  C       3.617586      5.392198     -1.330077
  C       2.894488      4.750895     -0.304839
  C       3.039553      3.365564     -0.122898
  Cl      2.118800      2.576491      1.233148
  H       1.642952     -0.448080      1.264016
  H       3.126559     -1.212103     -1.912889
  H       3.792774     -2.793870     -1.372179
  H       6.041118     -2.976976     -0.715398
  H       8.274377     -1.968882     -0.191501
  H       8.480594      0.524648      0.085377
  H       6.464067      1.983976     -0.179510
  H       3.048171      0.637032     -0.305035
  H       4.983828      5.107718     -3.010119
  H       3.522234      6.475863     -1.476307
  H       2.232958      5.318593      0.363440
30
Coordinates from ORCA-job Diclofenac\Diclofenac_B3LYP_STO-3G\Diclofenac_B3LYP_STO-3G.orcainp E -1645.719479912846
  O       2.091701     -0.464852      0.325420
  C       2.635648     -1.778229      0.155596
  O       2.303795     -2.730850      0.888939
  C       3.638282     -1.776640     -1.054205
  C       4.983671     -1.086949     -0.744299
  C       6.150291     -1.871093     -0.607720
  C       7.408201     -1.283362     -0.374153
  C       7.509627      0.117638     -0.259248
  C       6.363937      0.921928     -0.369178
  C       5.090063      0.338283     -0.616884
  N       3.885580      1.126596     -0.691577
  C       3.857946      2.533180     -0.891005
  C       4.579108      3.210873     -1.932333
  Cl      5.601855      2.255354     -3.086116
  C       4.502353      4.602616     -2.136385
  C       3.658435      5.387661     -1.326815
  C       2.892430      4.773083     -0.315619
  C       3.004871      3.386622     -0.106924
  Cl      2.018597      2.641975      1.222762
  H       1.528524     -0.491940      1.175606
  H       3.135691     -1.280118     -1.906412
  H       3.821493     -2.831277     -1.320143
  H       6.068008     -2.962677     -0.704891
  H       8.301790     -1.914273     -0.284107
  H       8.484306      0.587242     -0.068275
  H       6.438626      2.010521     -0.253853
  H       3.040035      0.662873     -0.204832
  H       5.088186      5.060416     -2.945184
  H       3.590150      6.471104     -1.489065
  H       2.220729      5.365154      0.320830
30
Coordinates from ORCA-job Diclofenac\Diclofenac_B3LYP_STO-3G\Diclofenac_B3LYP_STO-3G.orcainp E -1645.720120576962
  O       2.080626     -0.398502      0.227045
  C       2.639533     -1.717709      0.152013
  O       2.316825     -2.621354      0.948306
  C       3.645411     -1.778400     -1.055623
  C       4.996451     -1.098033     -0.749825
  C       6.158250     -1.884229     -0.590565
  C       7.414756     -1.296087     -0.348906
  C       7.516941      0.106354     -0.245850
  C       6.374232      0.912232     -0.374837
  C       5.103680      0.327085     -0.635434
  N       3.893957      1.106431     -0.724600
  C       3.861442      2.515501     -0.905164
  C       4.559007      3.211449     -1.952016
  Cl      5.543739      2.273779     -3.155335
  C       4.472400      4.605360     -2.135557
  C       3.641540      5.375417     -1.298123
  C       2.896803      4.743425     -0.281615
  C       3.018132      3.354554     -0.096408
  Cl      2.059135      2.583896      1.241047
  H       1.527991     -0.366688      1.086381
  H       3.155064     -1.295586     -1.922483
  H       3.813878     -2.843035     -1.288952
  H       6.072876     -2.976707     -0.676660
  H       8.306279     -1.927568     -0.241194
  H       8.490406      0.576101     -0.046969
  H       6.447122      2.001451     -0.264069
  H       3.052117      0.633033     -0.243813
  H       5.037306      5.075574     -2.952314
  H       3.564019      6.460836     -1.444862
  H       2.234012      5.322278      0.376315
30
Coordinates from ORCA-job Diclofenac\Diclofenac_B3LYP_STO-3G\Diclofenac_B3LYP_STO-3G.orcainp E -1645.720399597715
  O       2.053359     -0.414393      0.190936
  C       2.650545     -1.721320      0.156595
  O       2.382516     -2.595129      1.002769
  C       3.643620     -1.786037     -1.061096
  C       4.993085     -1.101686     -0.756151
  C       6.155639     -1.884349     -0.588778
  C       7.408154     -1.292382     -0.337360
  C       7.505092      0.110293     -0.235672
  C       6.362547      0.913661     -0.378779
  C       5.095137      0.325221     -0.647483
  N       3.884127      1.101069     -0.750073
  C       3.860613      2.512396     -0.915131
  C       4.555810      3.213876     -1.960404
  Cl      5.530258      2.279732     -3.175297
  C       4.473408      4.608831     -2.135394
  C       3.650483      5.376482     -1.288158
  C       2.908909      4.740836     -0.272044
  C       3.025458      3.350294     -0.097422
  Cl      2.078947      2.577531      1.248212
  H       1.539714     -0.352704      1.072070
  H       3.146996     -1.301138     -1.922691
  H       3.812736     -2.850089     -1.295812
  H       6.072836     -2.977179     -0.671985
  H       8.300251     -1.920940     -0.219185
  H       8.475156      0.582576     -0.026971
  H       6.431637      2.002874     -0.269367
  H       3.030115      0.620267     -0.282059
  H       5.035618      5.081586     -2.952377
  H       3.576979      6.463163     -1.426578
  H       2.254188      5.317518      0.395615
30
Coordinates from ORCA-job Diclofenac\Diclofenac_B3LYP_STO-3G\Diclofenac_B3LYP_STO-3G.orcainp E -1645.720499659264
  O       2.014252     -0.415610      0.136980
  C       2.672384     -1.696524      0.184833
  O       2.452776     -2.519866      1.092725
  C       3.641269     -1.797277     -1.047695
  C       4.992642     -1.110256     -0.758363
  C       6.156940     -1.888631     -0.586701
  C       7.407725     -1.290608     -0.341067
  C       7.499053      0.112936     -0.247786
  C       6.354030      0.911743     -0.396444
  C       5.088072      0.318389     -0.661721
  N       3.876074      1.089335     -0.784720
  C       3.855206      2.504718     -0.927875
  C       4.562748      3.217017     -1.957158
  Cl      5.546627      2.295476     -3.172395
  C       4.486897      4.614515     -2.114072
  C       3.658433      5.373239     -1.263938
  C       2.906532      4.726680     -0.262896
  C       3.016956      3.333111     -0.105271
  Cl      2.058923      2.549170      1.224385
  H       1.530890     -0.309064      1.031183
  H       3.139000     -1.322551     -1.911285
  H       3.803996     -2.865662     -1.266902
  H       6.077476     -2.982293     -0.660924
  H       8.302412     -1.914674     -0.219625
  H       8.467719      0.589842     -0.043515
  H       6.421705      2.001597     -0.294163
  H       3.006928      0.600295     -0.344976
  H       5.058509      5.096870     -2.918788
  H       3.589404      6.461847     -1.388612
  H       2.248351      5.297095      0.406716
30
Coordinates from ORCA-job Diclofenac\Diclofenac_B3LYP_STO-3G\Diclofenac_B3LYP_STO-3G.orcainp E -1645.720530526904
  O       2.021998     -0.421801      0.141493
  C       2.666453     -1.710234      0.174834
  O       2.450426     -2.532981      1.084479
  C       3.642694     -1.806667     -1.051266
  C       4.989174     -1.111286     -0.755382
  C       6.156829     -1.885504     -0.587505
  C       7.406175     -1.284160     -0.343049
  C       7.492904      0.119045     -0.246517
  C       6.344655      0.913985     -0.390023
  C       5.079330      0.318386     -0.653530
  N       3.869525      1.091648     -0.778668
  C       3.850850      2.507657     -0.924841
  C       4.560238      3.213136     -1.956902
  Cl      5.537994      2.284337     -3.170008
  C       4.490911      4.610811     -2.116178
  C       3.666987      5.375002     -1.266493
  C       2.913809      4.734204     -0.262933
  C       3.017881      3.340242     -0.101669
  Cl      2.056050      2.564990      1.228999
  H       1.542397     -0.323993      1.039222
  H       3.144379     -1.334071     -1.918188
  H       3.812067     -2.873944     -1.270849
  H       6.082079     -2.979172     -0.665870
  H       8.303499     -1.905399     -0.226703
  H       8.460611      0.598954     -0.044824
  H       6.410961      2.003747     -0.284990
  H       2.997949      0.610812     -0.341974
  H       5.063713      5.089601     -2.922185
  H       3.602687      6.463624     -1.393741
  H       2.258706      5.309892      0.405192
30
Coordinates from ORCA-job Diclofenac\Diclofenac_B3LYP_STO-3G\Diclofenac_B3LYP_STO-3G.orcainp E -1645.720558841688
  O       2.016077     -0.418505      0.138703
  C       2.661058     -1.707365      0.169795
  O       2.429534     -2.538751      1.067849
  C       3.644632     -1.802564     -1.051539
  C       4.992309     -1.109442     -0.752609
  C       6.158603     -1.885214     -0.583015
  C       7.409106     -1.285814     -0.338465
  C       7.498361      0.117548     -0.244304
  C       6.351482      0.914234     -0.390021
  C       5.085525      0.319914     -0.653607
  N       3.876083      1.092705     -0.774330
  C       3.855158      2.508648     -0.922431
  C       4.555170      3.213237     -1.961592
  Cl      5.526340      2.282818     -3.179410
  C       4.481530      4.610416     -2.123418
  C       3.662310      5.374549     -1.268970
  C       2.917630      4.734357     -0.258539
  C       3.025976      3.340940     -0.095059
  Cl      2.074049      2.564937      1.242913
  H       1.519408     -0.332732      1.028508
  H       3.150562     -1.330065     -1.921119
  H       3.814521     -2.869857     -1.270391
  H       6.081807     -2.978903     -0.659717
  H       8.305111     -1.908681     -0.220277
  H       8.466543      0.596230     -0.041652
  H       6.419206      2.003995     -0.285378
  H       3.007816      0.612387     -0.332299
  H       5.047112      5.088876     -2.934770
  H       3.594893      6.462840     -1.397914
  H       2.266018      5.310124      0.412985
30
Coordinates from ORCA-job Diclofenac\Diclofenac_B3LYP_STO-3G\Diclofenac_B3LYP_STO-3G.orcainp E -1645.720564309783
  O       2.010629     -0.415448      0.126600
  C       2.661533     -1.701631      0.171063
  O       2.434492     -2.523723      1.078679
  C       3.644931     -1.804473     -1.049579
  C       4.992903     -1.110878     -0.752744
  C       6.159199     -1.885934     -0.580834
  C       7.409488     -1.285718     -0.336825
  C       7.498181      0.117920     -0.245901
  C       6.351145      0.914019     -0.393907
  C       5.085419      0.318738     -0.656580
  N       3.875732      1.090373     -0.780077
  C       3.854903      2.507056     -0.924402
  C       4.554454      3.213732     -1.962459
  Cl      5.526129      2.285004     -3.181284
  C       4.480646      4.611180     -2.121510
  C       3.661932      5.373315     -1.264670
  C       2.918431      4.731180     -0.254624
  C       3.026921      3.337343     -0.094234
  Cl      2.077934      2.558222      1.244140
  H       1.516503     -0.322657      1.017134
  H       3.151896     -1.335562     -1.921727
  H       3.814410     -2.872958     -1.262866
  H       6.082496     -2.979840     -0.654740
  H       8.305513     -1.908105     -0.216505
  H       8.466038      0.597453     -0.043738
  H       6.418683      2.004018     -0.291995
  H       3.005568      0.609202     -0.342071
  H       5.045528      5.091499     -2.932252
  H       3.594379      6.461888     -1.391247
  H       2.267915      5.305642      0.419084
30
Coordinates from ORCA-job Diclofenac\Diclofenac_B3LYP_STO-3G\Diclofenac_B3LYP_STO-3G.orcainp E -1645.720565690465
  O       2.009009     -0.415452      0.123323
  C       2.661138     -1.701246      0.170835
  O       2.432900     -2.521945      1.079450
  C       3.645464     -1.805875     -1.048614
  C       4.992983     -1.111326     -0.751949
  C       6.159581     -1.885723     -0.579630
  C       7.409725     -1.284975     -0.335988
  C       7.497792      0.118759     -0.246038
  C       6.350436      0.914343     -0.394542
  C       5.084796      0.318511     -0.656587
  N       3.875328      1.089977     -0.782024
  C       3.854933      2.507152     -0.924968
  C       4.553673      3.213945     -1.963479
  Cl      5.524018      2.284772     -3.183010
  C       4.480178      4.611473     -2.121821
  C       3.662594      5.373273     -1.263521
  C       2.920311      4.731078     -0.252668
  C       3.028539      3.337052     -0.093077
  Cl      2.081498      2.557270      1.246286
  H       1.513836     -0.322846      1.013389
  H       3.153329     -1.338541     -1.922124
  H       3.815762     -2.874680     -1.259744
  H       6.083258     -2.979714     -0.652832
  H       8.305935     -1.907021     -0.215274
  H       8.465435      0.598959     -0.044352
  H       6.417836      2.004456     -0.293771
  H       3.003425      0.609467     -0.346935
  H       5.044099      5.092212     -2.932989
  H       3.595111      6.461926     -1.389597
  H       2.271007      5.305580      0.422184
30
Coordinates from ORCA-job Diclofenac\Diclofenac_B3LYP_STO-3G\Diclofenac_B3LYP_STO-3G.orcainp E -1645.720566105774
  O       2.007986     -0.415122      0.121162
  C       2.659745     -1.701081      0.169649
  O       2.430628     -2.521090      1.078665
  C       3.645883     -1.806396     -1.048188
  C       4.993165     -1.111399     -0.751307
  C       6.159815     -1.885612     -0.578562
  C       7.409993     -1.284740     -0.335378
  C       7.498021      0.119035     -0.246341
  C       6.350642      0.914507     -0.395214
  C       5.084979      0.318512     -0.656777
  N       3.875576      1.089815     -0.782414
  C       3.855180      2.507162     -0.924842
  C       4.552981      3.213988     -1.963932
  Cl      5.522486      2.284564     -3.183911
  C       4.479409      4.611509     -2.122148
  C       3.662531      5.373171     -1.263022
  C       2.921205      4.731012     -0.251473
  C       3.029652      3.336952     -0.092034
  Cl      2.083570      2.556857      1.247817
  H       1.512225     -0.322146      1.010862
  H       3.154623     -1.340342     -1.922869
  H       3.816736     -2.875400     -1.257844
  H       6.083520     -2.979635     -0.651245
  H       8.306180     -1.906751     -0.214365
  H       8.465640      0.599456     -0.045075
  H       6.418018      2.004676     -0.295088
  H       3.003651      0.609611     -0.347320
  H       5.042565      5.092402     -2.933754
  H       3.594835      6.461826     -1.389060
  H       2.272488      5.305519      0.423937
