33
Coordinates from ORCA-job Ibuprofen\Ibuprofen_TPSS_6-311+G\Ibuprofen_TPSS_6-311+G.orcainp E -656.996080448698
  C       2.950210     -0.389000      1.262740
  C       2.520450     -1.278480      0.093380
  C       0.995530     -1.407410      0.076750
  C       3.033050     -0.735040     -1.257200
  C       4.542160     -0.631790     -1.323750
  C       5.344210     -1.773030     -1.210370
  C       6.738460     -1.668380     -1.228430
  C       7.361340     -0.421860     -1.387150
  C       6.552280      0.718750     -1.505690
  C       5.159950      0.614500     -1.474460
  C       8.879980     -0.340920     -1.484840
  C       9.281890      0.247720     -2.841950
  C       9.611730      0.405240     -0.371630
  O       8.877450      0.766000      0.705490
  O      10.811950      0.643840     -0.413180
  H       2.593040     -0.801410      2.212030
  H       2.550000      0.625120      1.157900
  H       4.040240     -0.317770      1.333420
  H       2.933340     -2.279880      0.258260
  H       0.513450     -0.436170     -0.077450
  H       0.634240     -1.816020      1.026560
  H       0.667840     -2.081460     -0.721440
  H       2.583410      0.247560     -1.451140
  H       2.698960     -1.387020     -2.075130
  H       4.888860     -2.754890     -1.103260
  H       7.327480     -2.578870     -1.137920
  H       6.995990      1.704320     -1.635670
  H       4.560540      1.518480     -1.569840
  H       9.275100     -1.364820     -1.437490
  H       8.930760      1.279030     -2.956910
  H       8.863860     -0.344310     -3.663560
  H      10.370780      0.265190     -2.961320
  H       7.938070      0.511290      0.667340
33
Coordinates from ORCA-job Ibuprofen\Ibuprofen_TPSS_6-311+G\Ibuprofen_TPSS_6-311+G.orcainp E -656.998529086907
  C       2.905535     -0.342334      1.291173
  C       2.504179     -1.266672      0.129007
  C       0.975571     -1.437011      0.080965
  C       3.030488     -0.742898     -1.229538
  C       4.544265     -0.633707     -1.306830
  C       5.355644     -1.776347     -1.222103
  C       6.750795     -1.672505     -1.274296
  C       7.376221     -0.424185     -1.425517
  C       6.563885      0.719271     -1.515937
  C       5.169015      0.614255     -1.454929
  C       8.896455     -0.339797     -1.522863
  C       9.345193      0.266940     -2.871029
  C       9.594709      0.382215     -0.364298
  O       8.845203      0.712235      0.709851
  O      10.784162      0.653563     -0.367704
  H       2.536413     -0.739767      2.245290
  H       2.485718      0.663803      1.155990
  H       3.995779     -0.245960      1.374688
  H       2.943269     -2.257672      0.313511
  H       0.476203     -0.474851     -0.095893
  H       0.600790     -1.842075      1.029751
  H       0.677947     -2.126249     -0.720401
  H       2.581403      0.239261     -1.431707
  H       2.684825     -1.410090     -2.033518
  H       4.901888     -2.760146     -1.117004
  H       7.347759     -2.580341     -1.203045
  H       7.010238      1.705212     -1.637191
  H       4.567103      1.518236     -1.526076
  H       9.289052     -1.365348     -1.474097
  H       8.998119      1.300934     -2.980672
  H       8.941356     -0.317737     -3.704125
  H      10.437448      0.273101     -2.956760
  H       7.909970      0.445180      0.609396
33
Coordinates from ORCA-job Ibuprofen\Ibuprofen_TPSS_6-311+G\Ibuprofen_TPSS_6-311+G.orcainp E -656.999122668929
  C       2.873119     -0.277439      1.297731
  C       2.502095     -1.249501      0.161116
  C       0.976800     -1.463886      0.093519
  C       3.032108     -0.758136     -1.211713
  C       4.544344     -0.640337     -1.298219
  C       5.365509     -1.781091     -1.231488
  C       6.758740     -1.674264     -1.306988
  C       7.382544     -0.423259     -1.456540
  C       6.564696      0.719520     -1.531032
  C       5.170368      0.609246     -1.447969
  C       8.900734     -0.330519     -1.559208
  C       9.381755      0.308325     -2.886221
  C       9.570424      0.361651     -0.359914
  O       8.818346      0.589041      0.741702
  O      10.760301      0.622653     -0.315558
  H       2.499378     -0.649228      2.260994
  H       2.429129      0.712992      1.121114
  H       3.960528     -0.150343      1.383720
  H       2.970375     -2.222863      0.375221
  H       0.459916     -0.516788     -0.118110
  H       0.595225     -1.851046      1.047420
  H       0.709672     -2.179053     -0.696169
  H       2.580435      0.219152     -1.433954
  H       2.681378     -1.453122     -1.989455
  H       4.914755     -2.766665     -1.125417
  H       7.366633     -2.576242     -1.252931
  H       7.011097      1.705129     -1.654942
  H       4.562223      1.510167     -1.506097
  H       9.297417     -1.355585     -1.523250
  H       9.029704      1.342228     -2.977126
  H       8.990808     -0.266363     -3.731702
  H      10.474975      0.309594     -2.939761
  H       7.891067      0.314543      0.575317
33
Coordinates from ORCA-job Ibuprofen\Ibuprofen_TPSS_6-311+G\Ibuprofen_TPSS_6-311+G.orcainp E -656.999287158061
  C       2.857669     -0.211201      1.286466
  C       2.510117     -1.229694      0.183835
  C       0.990837     -1.480242      0.113430
  C       3.035261     -0.773655     -1.205260
  C       4.543853     -0.652777     -1.299992
  C       5.368140     -1.793884     -1.249994
  C       6.759169     -1.687142     -1.337413
  C       7.383517     -0.434296     -1.477657
  C       6.564390      0.709699     -1.535469
  C       5.171549      0.597315     -1.443092
  C       8.899422     -0.336872     -1.582082
  C       9.399741      0.351462     -2.876828
  C       9.552926      0.303281     -0.342605
  O       8.786395      0.477726      0.763724
  O      10.715937      0.669177     -0.306710
  H       2.486984     -0.554904      2.260842
  H       2.391464      0.761106      1.070904
  H       3.941553     -0.056646      1.365792
  H       3.002895     -2.183956      0.427838
  H       0.458775     -0.550429     -0.134287
  H       0.609650     -1.841550      1.077077
  H       0.745914     -2.225198     -0.654573
  H       2.581399      0.197449     -1.449695
  H       2.681475     -1.495707     -1.955229
  H       4.916762     -2.779887     -1.149030
  H       7.373449     -2.585640     -1.300445
  H       7.012843      1.694807     -1.654590
  H       4.559976      1.497030     -1.488801
  H       9.297077     -1.362221     -1.576032
  H       9.042887      1.385614     -2.932551
  H       9.018619     -0.199153     -3.742347
  H      10.492886      0.350249     -2.905914
  H       7.873071      0.178649      0.554780
33
Coordinates from ORCA-job Ibuprofen\Ibuprofen_TPSS_6-311+G\Ibuprofen_TPSS_6-311+G.orcainp E -656.999557230832
  C       2.867949     -0.196793      1.269580
  C       2.517401     -1.225911      0.179762
  C       0.999071     -1.476255      0.123872
  C       3.033722     -0.781783     -1.216082
  C       4.541485     -0.659142     -1.312370
  C       5.365806     -1.798294     -1.255431
  C       6.756958     -1.688289     -1.335024
  C       7.377602     -0.433975     -1.476087
  C       6.556499      0.707572     -1.540026
  C       5.164247      0.592282     -1.456484
  C       8.894172     -0.332983     -1.575479
  C       9.383131      0.367480     -2.865197
  C       9.555010      0.301975     -0.338749
  O       8.801081      0.434386      0.782389
  O      10.722434      0.655576     -0.306364
  H       2.505846     -0.532613      2.249611
  H       2.398683      0.772383      1.048705
  H       3.951777     -0.039843      1.341438
  H       3.010775     -2.176877      0.432019
  H       0.464052     -0.551174     -0.132936
  H       0.625242     -1.824426      1.095114
  H       0.749436     -2.233071     -0.630792
  H       2.575415      0.184296     -1.470202
  H       2.683435     -1.511657     -1.960017
  H       4.915887     -2.784743     -1.153667
  H       7.371666     -2.586143     -1.291628
  H       7.002233      1.694154     -1.656469
  H       4.551177      1.490674     -1.507183
  H       9.295213     -1.357200     -1.581558
  H       9.023733      1.401143     -2.911479
  H       9.002140     -0.175254     -3.736011
  H      10.476383      0.373213     -2.900890
  H       7.886938      0.129802      0.591724
33
Coordinates from ORCA-job Ibuprofen\Ibuprofen_TPSS_6-311+G\Ibuprofen_TPSS_6-311+G.orcainp E -656.999600511740
  C       2.873033     -0.172550      1.257055
  C       2.524332     -1.218530      0.183597
  C       1.007572     -1.476323      0.138206
  C       3.032968     -0.791524     -1.221146
  C       4.539799     -0.666274     -1.322005
  C       5.364743     -1.804581     -1.269175
  C       6.755864     -1.692319     -1.345947
  C       7.374403     -0.436327     -1.483474
  C       6.551974      0.704231     -1.542727
  C       5.160320      0.586734     -1.461190
  C       8.891131     -0.330954     -1.576665
  C       9.382128      0.384009     -2.856168
  C       9.545451      0.293314     -0.331409
  O       8.791767      0.382224      0.794863
  O      10.706668      0.665656     -0.294574
  H       2.518320     -0.496916      2.243490
  H       2.396557      0.790300      1.024993
  H       3.955946     -0.008079      1.321222
  H       3.023939     -2.162939      0.446884
  H       0.467367     -0.558579     -0.132976
  H       0.638894     -1.808795      1.116847
  H       0.758952     -2.247781     -0.601727
  H       2.570012      0.168931     -1.486999
  H       2.683961     -1.533832     -1.953032
  H       4.915136     -2.791596     -1.171523
  H       7.372456     -2.589023     -1.305593
  H       6.996902      1.691927     -1.651704
  H       4.545638      1.484214     -1.508834
  H       9.294972     -1.354288     -1.591325
  H       9.020331      1.417077     -2.893160
  H       9.006960     -0.150533     -3.734621
  H      10.475483      0.393475     -2.886482
  H       7.882620      0.068161      0.599393
33
Coordinates from ORCA-job Ibuprofen\Ibuprofen_TPSS_6-311+G\Ibuprofen_TPSS_6-311+G.orcainp E -656.999639031387
  C       2.872918     -0.145139      1.244563
  C       2.529474     -1.209680      0.188358
  C       1.014534     -1.476656      0.150705
  C       3.032720     -0.802878     -1.225399
  C       4.538841     -0.673290     -1.329246
  C       5.364655     -1.810760     -1.284230
  C       6.755889     -1.695965     -1.358629
  C       7.372346     -0.437787     -1.487668
  C       6.548328      0.701901     -1.539673
  C       5.157144      0.581964     -1.460042
  C       8.889300     -0.328000     -1.578029
  C       9.380386      0.398261     -2.849652
  C       9.539043      0.287474     -0.325774
  O       8.792967      0.321542      0.809027
  O      10.688105      0.694429     -0.289700
  H       2.523945     -0.457187      2.236916
  H       2.388408      0.810332      0.999397
  H       3.954445      0.028239      1.303185
  H       3.036252     -2.146397      0.464551
  H       0.468859     -0.567633     -0.137891
  H       0.648910     -1.791517      1.136271
  H       0.769374     -2.264169     -0.573275
  H       2.563636      0.150083     -1.506326
  H       2.687229     -1.560484     -1.942846
  H       4.915058     -2.798529     -1.194243
  H       7.374652     -2.591451     -1.325437
  H       6.992533      1.690755     -1.640412
  H       4.540559      1.478368     -1.503348
  H       9.295257     -1.350718     -1.599473
  H       9.016920      1.430937     -2.878769
  H       9.009321     -0.129231     -3.734123
  H      10.473798      0.410763     -2.876624
  H       7.890792     -0.009068      0.611929
33
Coordinates from ORCA-job Ibuprofen\Ibuprofen_TPSS_6-311+G\Ibuprofen_TPSS_6-311+G.orcainp E -656.999699782914
  C       2.874363     -0.081749      1.212795
  C       2.542275     -1.188051      0.197215
  C       1.031827     -1.479237      0.177657
  C       3.032236     -0.826530     -1.235007
  C       4.536336     -0.686939     -1.342710
  C       5.364340     -1.822315     -1.314785
  C       6.755438     -1.701781     -1.386022
  C       7.366547     -0.438993     -1.494222
  C       6.539380      0.698781     -1.528964
  C       5.149426      0.573200     -1.454236
  C       8.883112     -0.319620     -1.580623
  C       9.375721      0.426416     -2.837643
  C       9.518128      0.278540     -0.312269
  O       8.801558      0.172848      0.838556
  O      10.627832      0.780586     -0.274386
  H       2.539035     -0.365515      2.218217
  H       2.370784      0.855917      0.939112
  H       3.953410      0.112308      1.256993
  H       3.067419     -2.105842      0.501182
  H       0.471698     -0.591439     -0.146738
  H       0.674028     -1.757402      1.177041
  H       0.796030     -2.300090     -0.511582
  H       2.549487      0.108711     -1.549442
  H       2.695264     -1.617351     -1.919359
  H       4.915143     -2.811678     -1.240899
  H       7.379288     -2.594217     -1.368047
  H       6.982002      1.689901     -1.612147
  H       4.528500      1.467014     -1.486616
  H       9.293232     -1.341028     -1.612805
  H       9.008861      1.458165     -2.853299
  H       9.013186     -0.088351     -3.733095
  H      10.469250      0.444873     -2.857800
  H       7.921461     -0.210624      0.638017
33
Coordinates from ORCA-job Ibuprofen\Ibuprofen_TPSS_6-311+G\Ibuprofen_TPSS_6-311+G.orcainp E -656.999753923801
  C       2.860292     -0.075838      1.213360
  C       2.536334     -1.184560      0.198142
  C       1.026206     -1.477059      0.171140
  C       3.033778     -0.829585     -1.234035
  C       4.538540     -0.686207     -1.337960
  C       5.366912     -1.821209     -1.317190
  C       6.758614     -1.699488     -1.386566
  C       7.368860     -0.435843     -1.488136
  C       6.541167      0.701933     -1.515125
  C       5.151143      0.575523     -1.440357
  C       8.886286     -0.315041     -1.580187
  C       9.372251      0.418089     -2.846024
  C       9.524477      0.296066     -0.319446
  O       8.841096      0.139174      0.845514
  O      10.608974      0.850615     -0.297888
  H       2.518482     -0.358481      2.216954
  H       2.357720      0.860956      0.934965
  H       3.938129      0.119217      1.265759
  H       3.060922     -2.100958      0.507349
  H       0.467331     -0.590989     -0.160059
  H       0.662567     -1.751434      1.169489
  H       0.794818     -2.300753     -0.516211
  H       2.548063      0.101109     -1.557167
  H       2.702646     -1.626514     -1.913965
  H       4.917319     -2.810923     -1.251205
  H       7.382880     -2.591748     -1.375516
  H       6.983718      1.693535     -1.592946
  H       4.529629      1.469055     -1.468156
  H       9.296257     -1.337015     -1.602692
  H       9.006012      1.449988     -2.870147
  H       9.006198     -0.104244     -3.735639
  H      10.465769      0.437367     -2.872514
  H       7.973213     -0.276230      0.660549
33
Coordinates from ORCA-job Ibuprofen\Ibuprofen_TPSS_6-311+G\Ibuprofen_TPSS_6-311+G.orcainp E -656.999833848614
  C       2.830579     -0.106377      1.236867
  C       2.516489     -1.192117      0.193904
  C       1.004152     -1.472172      0.136336
  C       3.038505     -0.816695     -1.223758
  C       4.545521     -0.674146     -1.317804
  C       5.372955     -1.810588     -1.302940
  C       6.765689     -1.691482     -1.373992
  C       7.378557     -0.429285     -1.470910
  C       6.552911      0.710585     -1.488771
  C       5.161872      0.587069     -1.411370
  C       8.897144     -0.311791     -1.577334
  C       9.368749      0.374622     -2.874018
  C       9.545237      0.346354     -0.346493
  O       8.910674      0.173888      0.842637
  O      10.598792      0.958084     -0.366459
  H       2.467500     -0.407587      2.227697
  H       2.340240      0.840110      0.969342
  H       3.907696      0.079883      1.314861
  H       3.027773     -2.119109      0.494620
  H       0.457202     -0.573604     -0.181454
  H       0.622988     -1.768013      1.121963
  H       0.776526     -2.276636     -0.574745
  H       2.558224      0.119994     -1.538637
  H       2.710974     -1.600719     -1.920526
  H       4.922287     -2.800112     -1.242768
  H       7.386473     -2.586213     -1.368442
  H       6.997169      1.701761     -1.563990
  H       4.543143      1.482732     -1.431476
  H       9.305297     -1.334583     -1.565202
  H       9.004410      1.406215     -2.930146
  H       8.989676     -0.177012     -3.740190
  H      10.461958      0.391524     -2.918421
  H       8.059236     -0.286068      0.695710
33
Coordinates from ORCA-job Ibuprofen\Ibuprofen_TPSS_6-311+G\Ibuprofen_TPSS_6-311+G.orcainp E -656.999902101729
  C       2.826880     -0.110725      1.236936
  C       2.513187     -1.191126      0.188010
  C       1.000332     -1.469549      0.122420
  C       3.040003     -0.809141     -1.224545
  C       4.546590     -0.667979     -1.311430
  C       5.372996     -1.805357     -1.305381
  C       6.765800     -1.687105     -1.374971
  C       7.378773     -0.424802     -1.458376
  C       6.555204      0.716220     -1.464384
  C       5.164427      0.593539     -1.390040
  C       8.896575     -0.305690     -1.570662
  C       9.363529      0.342092     -2.888063
  C       9.531237      0.393542     -0.357622
  O       8.957208      0.151745      0.851003
  O      10.525784      1.096236     -0.403368
  H       2.461347     -0.417434      2.225319
  H       2.337373      0.837630      0.974086
  H       3.905065      0.075302      1.318011
  H       3.022115     -2.120663      0.485805
  H       0.455496     -0.566890     -0.187884
  H       0.615731     -1.775035      1.103762
  H       0.773749     -2.266166     -0.597844
  H       2.562635      0.130232     -1.536975
  H       2.713662     -1.588708     -1.927102
  H       4.921689     -2.795107     -1.254012
  H       7.385097     -2.582876     -1.376229
  H       7.000981      1.707620     -1.528894
  H       4.546987      1.490323     -1.398935
  H       9.307036     -1.326658     -1.524844
  H       8.996885      1.370999     -2.973664
  H       8.981605     -0.235451     -3.735968
  H      10.456535      0.360107     -2.939171
  H       8.144086     -0.380614      0.729101
33
Coordinates from ORCA-job Ibuprofen\Ibuprofen_TPSS_6-311+G\Ibuprofen_TPSS_6-311+G.orcainp E -656.999936685219
  C       2.831808     -0.125079      1.241263
  C       2.514005     -1.194021      0.181705
  C       1.000760     -1.470311      0.116222
  C       3.038785     -0.794588     -1.225805
  C       4.545298     -0.658396     -1.312758
  C       5.369278     -1.797568     -1.311342
  C       6.762083     -1.682346     -1.379528
  C       7.377681     -0.421295     -1.453655
  C       6.557416      0.721609     -1.456330
  C       5.166315      0.601630     -1.385838
  C       8.895651     -0.303882     -1.561938
  C       9.365818      0.309660     -2.894195
  C       9.512416      0.431067     -0.362953
  O       8.970505      0.160824      0.855521
  O      10.466111      1.187465     -0.423931
  H       2.468376     -0.441318      2.227404
  H       2.342683      0.826450      0.989302
  H       3.910567      0.059339      1.320387
  H       3.021672     -2.127440      0.469206
  H       0.455817     -0.562930     -0.179662
  H       0.618910     -1.789631      1.094247
  H       0.771877     -2.256582     -0.614482
  H       2.566502      0.152177     -1.523425
  H       2.707130     -1.560929     -1.940509
  H       4.916828     -2.787009     -1.262670
  H       7.378534     -2.580102     -1.381909
  H       7.005644      1.712454     -1.514207
  H       4.551310      1.500147     -1.390011
  H       9.307120     -1.322515     -1.485903
  H       8.996871      1.334989     -3.007545
  H       8.985091     -0.291340     -3.726322
  H      10.458851      0.327666     -2.944841
  H       8.188885     -0.419683      0.748591
33
Coordinates from ORCA-job Ibuprofen\Ibuprofen_TPSS_6-311+G\Ibuprofen_TPSS_6-311+G.orcainp E -656.999953274333
  C       2.831605     -0.157629      1.255075
  C       2.510629     -1.202486      0.172451
  C       0.996598     -1.471983      0.101628
  C       3.037541     -0.771189     -1.224245
  C       4.545043     -0.642308     -1.310093
  C       5.364891     -1.784565     -1.309668
  C       6.758110     -1.674923     -1.374898
  C       7.379093     -0.416570     -1.445446
  C       6.563712      0.729411     -1.449185
  C       5.171675      0.614808     -1.381165
  C       8.898044     -0.304732     -1.552014
  C       9.368109      0.266585     -2.902801
  C       9.504871      0.472059     -0.376356
  O       8.986608      0.205622      0.853898
  O      10.428605      1.262575     -0.462424
  H       2.466513     -0.492479      2.234350
  H       2.346211      0.800631      1.022157
  H       3.910649      0.021402      1.337422
  H       3.013844     -2.143801      0.440880
  H       0.454094     -0.556579     -0.172941
  H       0.614841     -1.812734      1.072420
  H       0.765298     -2.241092     -0.646342
  H       2.573045      0.187127     -1.495885
  H       2.699474     -1.514431     -1.960204
  H       4.909892     -2.772976     -1.262514
  H       7.369896     -2.575852     -1.376925
  H       7.015720      1.718735     -1.505581
  H       4.560678      1.516106     -1.385809
  H       9.308634     -1.320461     -1.443002
  H       8.997922      1.287371     -3.047689
  H       8.984951     -0.361228     -3.713848
  H      10.461086      0.282172     -2.956055
  H       8.228718     -0.408076      0.768899
33
Coordinates from ORCA-job Ibuprofen\Ibuprofen_TPSS_6-311+G\Ibuprofen_TPSS_6-311+G.orcainp E -656.999959090972
  C       2.833411     -0.161821      1.256734
  C       2.511169     -1.203877      0.171698
  C       0.997163     -1.473089      0.102318
  C       3.036667     -0.768216     -1.224558
  C       4.544458     -0.640311     -1.310818
  C       5.363682     -1.783007     -1.306151
  C       6.756974     -1.674219     -1.370768
  C       7.378779     -0.416313     -1.446268
  C       6.563798      0.729945     -1.455030
  C       5.171638      0.616191     -1.386733
  C       8.898055     -0.306114     -1.552055
  C       9.368998      0.267882     -2.901615
  C       9.506732      0.468450     -0.375357
  O       8.980607      0.209628      0.853316
  O      10.437459      1.250646     -0.459802
  H       2.469540     -0.498496      2.235770
  H       2.348040      0.796968      1.026104
  H       3.912591      0.016441      1.337905
  H       3.014906     -2.145761      0.436830
  H       0.454269     -0.557790     -0.171701
  H       0.616372     -1.813895      1.073458
  H       0.765297     -2.242329     -0.645381
  H       2.572661      0.191443     -1.491943
  H       2.697653     -1.508934     -1.962556
  H       4.908140     -2.771020     -1.256387
  H       7.368758     -2.575151     -1.369892
  H       7.016255      1.718788     -1.515713
  H       4.560845      1.517597     -1.396026
  H       9.307572     -1.322512     -1.445639
  H       8.999026      1.289016     -3.044069
  H       8.986223     -0.358271     -3.714093
  H      10.462056      0.282931     -2.953272
  H       8.216805     -0.396291      0.765785
33
Coordinates from ORCA-job Ibuprofen\Ibuprofen_TPSS_6-311+G\Ibuprofen_TPSS_6-311+G.orcainp E -656.999962516481
  C       2.837832     -0.169155      1.258460
  C       2.512119     -1.205683      0.169033
  C       0.998033     -1.474218      0.102231
  C       3.034697     -0.762194     -1.226322
  C       4.542801     -0.635817     -1.312078
  C       5.360687     -1.779297     -1.301937
  C       6.754103     -1.671743     -1.365354
  C       7.376937     -0.414425     -1.446485
  C       6.562988      0.732372     -1.461094
  C       5.170798      0.619938     -1.393154
  C       8.896641     -0.306340     -1.550553
  C       9.370466      0.263460     -2.900996
  C       9.504411      0.471865     -0.375087
  O       8.982091      0.208481      0.854757
  O      10.430582      1.258769     -0.460825
  H       2.476788     -0.509717      2.237119
  H       2.352596      0.790893      1.033039
  H       3.917648      0.007328      1.336971
  H       3.016779     -2.148824      0.427508
  H       0.454611     -0.558793     -0.170196
  H       0.618901     -1.815616      1.073808
  H       0.764752     -2.243011     -0.645551
  H       2.571198      0.199474     -1.486820
  H       2.694629     -1.498968     -1.967678
  H       4.904028     -2.766601     -1.249387
  H       7.366082     -2.572536     -1.360653
  H       7.016504      1.720468     -1.525755
  H       4.560317      1.521498     -1.407468
  H       9.304255     -1.323121     -1.440802
  H       9.001326      1.284415     -3.046381
  H       8.989331     -0.364746     -3.712596
  H      10.463676      0.277465     -2.949377
  H       8.217992     -0.397111      0.767714
33
Coordinates from ORCA-job Ibuprofen\Ibuprofen_TPSS_6-311+G\Ibuprofen_TPSS_6-311+G.orcainp E -656.999963325832
  C       2.837188     -0.174665      1.261519
  C       2.510715     -1.207394      0.168706
  C       0.996235     -1.473321      0.099706
  C       3.035046     -0.760655     -1.224919
  C       4.543365     -0.634700     -1.310450
  C       5.361279     -1.778242     -1.297807
  C       6.754687     -1.670899     -1.362269
  C       7.377651     -0.413855     -1.446543
  C       6.563731      0.732983     -1.463316
  C       5.171461      0.620794     -1.394616
  C       8.897363     -0.306501     -1.551268
  C       9.371183      0.262300     -2.902315
  C       9.506804      0.471832     -0.376753
  O       8.980119      0.216133      0.852687
  O      10.437937      1.252837     -0.463071
  H       2.474696     -0.517663      2.238813
  H       2.353768      0.786887      1.038611
  H       3.917133     -0.000280      1.341625
  H       3.013505     -2.152206      0.424764
  H       0.454538     -0.556249     -0.170686
  H       0.615543     -1.816830      1.069943
  H       0.762334     -2.239485     -0.650561
  H       2.572306      0.202011     -1.483059
  H       2.694653     -1.495097     -1.968485
  H       4.904683     -2.765417     -1.242513
  H       7.366694     -2.571656     -1.355331
  H       7.017262      1.720927     -1.530225
  H       4.561086      1.522397     -1.410168
  H       9.304352     -1.323424     -1.441035
  H       9.002650      1.283414     -3.048256
  H       8.989632     -0.366107     -3.713550
  H      10.464389      0.275724     -2.950937
  H       8.212613     -0.385083      0.765852
33
Coordinates from ORCA-job Ibuprofen\Ibuprofen_TPSS_6-311+G\Ibuprofen_TPSS_6-311+G.orcainp E -656.999963689738
  C       2.837749     -0.176083      1.262016
  C       2.510315     -1.207783      0.168571
  C       0.995582     -1.472220      0.098913
  C       3.035258     -0.760819     -1.224655
  C       4.543546     -0.634856     -1.309917
  C       5.361635     -1.778274     -1.296589
  C       6.754997     -1.670662     -1.361464
  C       7.377615     -0.413544     -1.446461
  C       6.563554      0.733160     -1.463698
  C       5.171340      0.620736     -1.394797
  C       8.897208     -0.306011     -1.551499
  C       9.371244      0.261937     -2.902724
  C       9.506395      0.472688     -0.377206
  O       8.980502      0.216299      0.852387
  O      10.436751      1.254656     -0.463713
  H       2.474810     -0.519547      2.239007
  H       2.355335      0.786160      1.039909
  H       3.917914     -0.002895      1.342457
  H       3.012058     -2.153315      0.424113
  H       0.454912     -0.554372     -0.170988
  H       0.614147     -1.816050      1.068747
  H       0.761053     -2.237445     -0.652104
  H       2.572663      0.201912     -1.482886
  H       2.694905     -1.495032     -1.968506
  H       4.905217     -2.765478     -1.240392
  H       7.367243     -2.571251     -1.353911
  H       7.016941      1.721136     -1.531093
  H       4.560787      1.522211     -1.410395
  H       9.304174     -1.322870     -1.440372
  H       9.002998      1.283070     -3.049427
  H       8.989876     -0.366742     -3.713840
  H      10.464464      0.275363     -2.951357
  H       8.213410     -0.385567      0.765966
