24
Coordinates from ORCA-job Triclosan\Triclosan_TPSS_def2-TZVP\Triclosan_TPSS_def2-TZVP.orcainp E -1992.970329617023
  C      -0.498380      1.456720      0.098960
  C       0.836360      1.861870      0.139870
  C       1.858500      0.909640      0.076920
  C       1.527050     -0.445530      0.103270
  C       0.193990     -0.859110      0.065880
  C      -0.813110      0.098450      0.043280
  Cl     -2.458040     -0.389950     -0.044300
  O       2.486230     -1.418040      0.159240
  O       3.195400      1.239150      0.004080
  C       3.558400      2.365550     -0.713420
  C       4.599240      3.161890     -0.218400
  C       4.975450      4.330570     -0.889960
  C       4.312220      4.697790     -2.056160
  C       3.302130      3.893950     -2.580580
  C       2.944190      2.713370     -1.925990
  Cl      4.745030      6.153320     -2.864750
  Cl      5.438900      2.741890      1.230850
  H      -1.286770      2.204470      0.098980
  H       1.062640      2.922230      0.193350
  H      -0.040810     -1.921090      0.052350
  H       3.329410     -0.977310      0.373690
  H       5.776510      4.951890     -0.496780
  H       2.786880      4.180330     -3.495300
  H       2.168020      2.086870     -2.360910
24
Coordinates from ORCA-job Triclosan\Triclosan_TPSS_def2-TZVP\Triclosan_TPSS_def2-TZVP.orcainp E -1992.973938196477
  C      -0.573066      1.417106      0.212720
  C       0.748220      1.860111      0.167029
  C       1.793322      0.941876      0.041502
  C       1.513325     -0.430025      0.037677
  C       0.192404     -0.880892      0.080682
  C      -0.843177      0.048146      0.152773
  Cl     -2.489348     -0.502307      0.176463
  O       2.510576     -1.368487     -0.032190
  O       3.132603      1.298617     -0.000192
  C       3.517125      2.423432     -0.709002
  C       4.532195      3.223260     -0.171107
  C       4.985274      4.351058     -0.859579
  C       4.420572      4.672360     -2.091150
  C       3.429301      3.865888     -2.652413
  C       2.988949      2.736914     -1.965160
  Cl      4.961618      6.086557     -2.939637
  Cl      5.249754      2.831542      1.358461
  H      -1.381694      2.135978      0.292977
  H       0.951986      2.923742      0.233307
  H      -0.008912     -1.946740      0.052759
  H       3.366065     -0.912280      0.078834
  H       5.767944      4.969063     -0.433716
  H       3.000722      4.110280     -3.618698
  H       2.233683      2.103721     -2.418167
24
Coordinates from ORCA-job Triclosan\Triclosan_TPSS_def2-TZVP\Triclosan_TPSS_def2-TZVP.orcainp E -1992.975137230616
  C      -0.609849      1.398911      0.225637
  C       0.701685      1.864661      0.142382
  C       1.757155      0.964113      0.025810
  C       1.514085     -0.416480      0.005232
  C       0.205605     -0.892110      0.099210
  C      -0.842215      0.021925      0.202746
  Cl     -2.485789     -0.574905      0.302933
  O       2.535493     -1.318772     -0.118229
  O       3.099071      1.331018      0.020761
  C       3.497693      2.448124     -0.689190
  C       4.512746      3.243443     -0.144897
  C       5.008699      4.340925     -0.847354
  C       4.473883      4.639449     -2.098746
  C       3.463117      3.853832     -2.656561
  C       2.981317      2.758642     -1.946714
  Cl      5.081204      6.023427     -2.978241
  Cl      5.176538      2.860246      1.418466
  H      -1.432587      2.098601      0.319375
  H       0.895216      2.932457      0.176416
  H       0.025295     -1.961224      0.081391
  H       3.381853     -0.831051     -0.113383
  H       5.795287      4.949602     -0.417504
  H       3.060321      4.085641     -3.635849
  H       2.203618      2.138447     -2.379520
24
Coordinates from ORCA-job Triclosan\Triclosan_TPSS_def2-TZVP\Triclosan_TPSS_def2-TZVP.orcainp E -1992.975315441127
  C      -0.623007      1.391789      0.234781
  C       0.686344      1.867563      0.158185
  C       1.745465      0.974397      0.037739
  C       1.515212     -0.409504     -0.002447
  C       0.209953     -0.894854      0.087125
  C      -0.840190      0.013988      0.200686
  Cl     -2.481246     -0.599243      0.305966
  O       2.544846     -1.297488     -0.128604
  O       3.087944      1.347845      0.042151
  C       3.492291      2.456774     -0.677808
  C       4.514625      3.249096     -0.141378
  C       5.021217      4.335348     -0.852683
  C       4.486613      4.625090     -2.105821
  C       3.467873      3.847405     -2.657576
  C       2.977396      2.761907     -1.937832
  Cl      5.112663      5.994348     -3.000348
  Cl      5.170082      2.872858      1.428684
  H      -1.452781      2.082733      0.330756
  H       0.876224      2.935927      0.194626
  H       0.034828     -1.964917      0.059315
  H       3.382058     -0.794837     -0.155171
  H       5.812658      4.941496     -0.427549
  H       3.067456      4.076613     -3.638806
  H       2.190918      2.144588     -2.359820
24
Coordinates from ORCA-job Triclosan\Triclosan_TPSS_def2-TZVP\Triclosan_TPSS_def2-TZVP.orcainp E -1992.975418689872
  C      -0.631121      1.388345      0.236195
  C       0.677718      1.872057      0.180707
  C       1.739958      0.984374      0.059934
  C       1.519972     -0.402033     -0.000965
  C       0.215310     -0.894381      0.064384
  C      -0.836275      0.011184      0.179303
  Cl     -2.476555     -0.613166      0.258592
  O       2.556538     -1.279315     -0.115843
  O       3.081804      1.366432      0.076720
  C       3.490267      2.462439     -0.660246
  C       4.526481      3.250023     -0.142035
  C       5.035909      4.326181     -0.866372
  C       4.488243      4.609092     -2.114949
  C       3.456471      3.839976     -2.650957
  C       2.964364      2.763125     -1.917868
  Cl      5.119450      5.965404     -3.027264
  Cl      5.194267      2.878829      1.424382
  H      -1.467335      2.071851      0.328754
  H       0.865550      2.940267      0.229833
  H       0.042098     -1.964211      0.018753
  H       3.385649     -0.764237     -0.160516
  H       5.837245      4.928672     -0.454564
  H       3.047163      4.069048     -3.628711
  H       2.166268      2.148966     -2.323096
24
Coordinates from ORCA-job Triclosan\Triclosan_TPSS_def2-TZVP\Triclosan_TPSS_def2-TZVP.orcainp E -1992.975470606011
  C      -0.636233      1.386564      0.235632
  C       0.671821      1.875826      0.201526
  C       1.737648      0.992898      0.079569
  C       1.524916     -0.394211      0.001260
  C       0.220699     -0.891672      0.041848
  C      -0.833903      0.010115      0.155765
  Cl     -2.473072     -0.620834      0.202563
  O       2.566338     -1.265796     -0.105250
  O       3.077398      1.383932      0.109466
  C       3.488418      2.467675     -0.643317
  C       4.538098      3.249733     -0.143362
  C       5.047688      4.317312     -0.880400
  C       4.486571      4.596113     -2.123803
  C       3.443093      3.832433     -2.643251
  C       2.950884      2.763902     -1.897549
  Cl      5.117132      5.941665     -3.052029
  Cl      5.223211      2.882405      1.416125
  H      -1.476693      2.064892      0.327389
  H       0.856907      2.943534      0.268124
  H       0.049565     -1.960880     -0.021185
  H       3.392216     -0.744942     -0.146256
  H       5.859040      4.915710     -0.482568
  H       3.023999      4.059905     -3.617224
  H       2.143696      2.152640     -2.288901
24
Coordinates from ORCA-job Triclosan\Triclosan_TPSS_def2-TZVP\Triclosan_TPSS_def2-TZVP.orcainp E -1992.975574749504
  C      -0.652855      1.378388      0.239503
  C       0.650006      1.883453      0.251253
  C       1.727990      1.016374      0.121843
  C       1.536227     -0.370587      0.000219
  C       0.236639     -0.883631     -0.010307
  C      -0.829699      0.003679      0.106483
  Cl     -2.461790     -0.646072      0.084787
  O       2.590494     -1.226872     -0.099129
  O       3.060232      1.432228      0.186640
  C       3.480576      2.484124     -0.603693
  C       4.561252      3.249717     -0.144796
  C       5.076066      4.293155     -0.912499
  C       4.490050      4.562775     -2.146459
  C       3.418921      3.813354     -2.627506
  C       2.920864      2.769175     -1.851288
  Cl      5.124817      5.878613     -3.112779
  Cl      5.280239      2.892399      1.401016
  H      -1.504234      2.042259      0.335571
  H       0.823282      2.949568      0.360881
  H       0.076149     -1.951177     -0.113751
  H       3.409487     -0.693648     -0.118253
  H       5.910737      4.879255     -0.546116
  H       2.981426      4.034364     -3.594802
  H       2.092563      2.168024     -2.212647
24
Coordinates from ORCA-job Triclosan\Triclosan_TPSS_def2-TZVP\Triclosan_TPSS_def2-TZVP.orcainp E -1992.975670208287
  C      -0.700947      1.346324      0.261960
  C       0.580965      1.894204      0.357477
  C       1.693925      1.076199      0.203306
  C       1.562297     -0.305306     -0.012773
  C       0.282963     -0.860978     -0.114347
  C      -0.818093     -0.020107      0.020967
  Cl     -2.422107     -0.720810     -0.121018
  O       2.649813     -1.118068     -0.117779
  O       3.001843      1.554704      0.339680
  C       3.451462      2.530702     -0.526036
  C       4.596753      3.245346     -0.146234
  C       5.138546      4.224937     -0.976952
  C       4.516928      4.480842     -2.196661
  C       3.385684      3.777594     -2.601955
  C       2.858943      2.797707     -1.762908
  Cl      5.182774      5.718034     -3.241829
  Cl      5.365637      2.903100      1.378068
  H      -1.580734      1.968955      0.375639
  H       0.714558      2.953746      0.553169
  H       0.160728     -1.922233     -0.299840
  H       3.449021     -0.556257     -0.080006
  H       6.022589      4.771767     -0.671081
  H       2.921541      3.986321     -3.559429
  H       1.984350      2.232196     -2.067249
24
Coordinates from ORCA-job Triclosan\Triclosan_TPSS_def2-TZVP\Triclosan_TPSS_def2-TZVP.orcainp E -1992.975763124575
  C      -0.693042      1.351354      0.258212
  C       0.592517      1.891611      0.335254
  C       1.700194      1.065332      0.184626
  C       1.555926     -0.316783     -0.015611
  C       0.272716     -0.865843     -0.095082
  C      -0.823778     -0.018455      0.039147
  Cl     -2.432917     -0.710963     -0.072961
  O       2.636493     -1.139588     -0.126462
  O       3.011544      1.533879      0.312970
  C       3.458689      2.521585     -0.541671
  C       4.591668      3.246709     -0.146193
  C       5.128335      4.238791     -0.964943
  C       4.515126      4.498266     -2.188323
  C       3.394580      3.784786     -2.607176
  C       2.871928      2.793124     -1.779741
  Cl      5.174970      5.751594     -3.217703
  Cl      5.348922      2.904487      1.384257
  H      -1.566901      1.982509      0.371194
  H       0.732551      2.953414      0.513614
  H       0.145039     -1.929584     -0.262396
  H       3.442389     -0.588890     -0.077427
  H       6.002807      4.793957     -0.646521
  H       2.934962      3.994629     -3.566611
  H       2.004722      2.222999     -2.096284
24
Coordinates from ORCA-job Triclosan\Triclosan_TPSS_def2-TZVP\Triclosan_TPSS_def2-TZVP.orcainp E -1992.975843315389
  C      -0.707282      1.338868      0.265816
  C       0.572001      1.890517      0.343713
  C       1.689313      1.077930      0.186640
  C       1.557212     -0.301658     -0.028746
  C       0.280002     -0.864221     -0.103909
  C      -0.827269     -0.032424      0.040116
  Cl     -2.428665     -0.741850     -0.063100
  O       2.644343     -1.113468     -0.160698
  O       2.993857      1.559341      0.331264
  C       3.452017      2.533086     -0.534270
  C       4.594896      3.246214     -0.145381
  C       5.142591      4.224898     -0.971705
  C       4.532363      4.486499     -2.196536
  C       3.400339      3.785037     -2.606294
  C       2.865207      2.806857     -1.770893
  Cl      5.208055      5.723802     -3.235379
  Cl      5.348716      2.904880      1.387894
  H      -1.586444      1.961489      0.385512
  H       0.700739      2.953299      0.525612
  H       0.166458     -1.929163     -0.274761
  H       3.448037     -0.564902     -0.073470
  H       6.024835      4.770277     -0.657366
  H       2.940393      3.992879     -3.566053
  H       1.987725      2.250734     -2.083835
24
Coordinates from ORCA-job Triclosan\Triclosan_TPSS_def2-TZVP\Triclosan_TPSS_def2-TZVP.orcainp E -1992.975854661125
  C      -0.717092      1.330762      0.273783
  C       0.557916      1.890683      0.357557
  C       1.681477      1.088026      0.194187
  C       1.559474     -0.289946     -0.036170
  C       0.286380     -0.861314     -0.115681
  C      -0.827095     -0.039665      0.036238
  Cl     -2.423113     -0.760649     -0.070325
  O       2.651939     -1.091839     -0.179999
  O       2.982206      1.577820      0.347275
  C       3.446477      2.541752     -0.526000
  C       4.596867      3.247056     -0.144193
  C       5.152033      4.214650     -0.977910
  C       4.542160      4.473881     -2.203564
  C       3.402262      3.781169     -2.605751
  C       2.859364      2.813768     -1.762557
  Cl      5.229343      5.696667     -3.252616
  Cl      5.349548      2.908290      1.390756
  H      -1.600850      1.946016      0.397730
  H       0.679026      2.952983      0.547547
  H       0.182124     -1.925776     -0.295633
  H       3.452021     -0.541033     -0.075822
  H       6.040005      4.753624     -0.668501
  H       2.941820      3.986596     -3.565832
  H       1.975144      2.265399     -2.070349
24
Coordinates from ORCA-job Triclosan\Triclosan_TPSS_def2-TZVP\Triclosan_TPSS_def2-TZVP.orcainp E -1992.975857065967
  C      -0.719168      1.329222      0.277206
  C       0.555015      1.890918      0.362889
  C       1.679711      1.090594      0.196724
  C       1.559938     -0.286936     -0.038891
  C       0.287615     -0.860011     -0.120056
  C      -0.826747     -0.040470      0.035023
  Cl     -2.421756     -0.763844     -0.072997
  O       2.653612     -1.085812     -0.186735
  O       2.980083      1.581399      0.351076
  C       3.445636      2.543251     -0.523724
  C       4.596932      3.248142     -0.143400
  C       5.153543      4.212990     -0.979127
  C       4.543944      4.469882     -2.205449
  C       3.403050      3.778421     -2.606212
  C       2.858827      2.813506     -1.760769
  Cl      5.233955      5.688825     -3.257456
  Cl      5.348201      2.911554      1.392916
  H      -1.604000      1.942619      0.402597
  H       0.674582      2.952785      0.556279
  H       0.185759     -1.924091     -0.303704
  H       3.452476     -0.534091     -0.077587
  H       6.042098      4.751551     -0.670692
  H       2.942658      3.982460     -3.566615
  H       1.973476      2.266058     -2.067125
24
Coordinates from ORCA-job Triclosan\Triclosan_TPSS_def2-TZVP\Triclosan_TPSS_def2-TZVP.orcainp E -1992.975857823816
  C      -0.719455      1.329158      0.278936
  C       0.554617      1.891197      0.365955
  C       1.679380      1.091516      0.198082
  C       1.560172     -0.285783     -0.040169
  C       0.287956     -0.859091     -0.122839
  C      -0.826364     -0.039918      0.033721
  Cl     -2.421261     -0.763465     -0.076324
  O       2.654312     -1.083475     -0.189158
  O       2.979815      1.582229      0.352787
  C       3.445698      2.543201     -0.522718
  C       4.596907      3.248676     -0.143078
  C       5.153530      4.212728     -0.979687
  C       4.543728      4.468056     -2.206260
  C       3.403010      3.776365     -2.606560
  C       2.858898      2.812127     -1.760078
  Cl      5.234083      5.685969     -3.259402
  Cl      5.347741      2.913477      1.393786
  H      -1.604580      1.941935      0.405226
  H       0.673861      2.952646      0.561804
  H       0.186986     -1.922863     -0.308728
  H       3.452495     -0.531361     -0.076587
  H       6.041946      4.751755     -0.671726
  H       2.942441      3.979512     -3.567054
  H       1.973524      2.264330     -2.065755
