24
Coordinates from ORCA-job Triclosan\Triclosan_TPSS_def2-TZVP\Triclosan_TPSS_def2-TZVP.orcainp E -1992.975857823816
  C          -0.71945516644053      1.32915796651795      0.27893551804676
  C           0.55461709794599      1.89119684810432      0.36595472122120
  C           1.67937976727754      1.09151607690920      0.19808155095627
  C           1.56017184472130     -0.28578277744884     -0.04016947397452
  C           0.28795577212063     -0.85909122530675     -0.12283915452471
  C          -0.82636412879071     -0.03991822584502      0.03372132597822
  Cl         -2.42126115028562     -0.76346463850739     -0.07632369894219
  O           2.65431198942368     -1.08347508897428     -0.18915830523012
  O           2.97981454384323      1.58222875733553      0.35278683220960
  C           3.44569778969786      2.54320066278581     -0.52271835328054
  C           4.59690727195948      3.24867648925742     -0.14307838509786
  C           5.15353013892528      4.21272799896813     -0.97968748493971
  C           4.54372788647990      4.46805599300379     -2.20625997410167
  C           3.40301028049762      3.77636505120659     -2.60656039869655
  C           2.85889810539001      2.81212652798940     -1.76007761476331
  Cl          5.23408286046844      5.68596862865457     -3.25940232921803
  Cl          5.34774102170579      2.91347680429815      1.39378599192948
  H          -1.60457993021262      1.94193503696708      0.40522590983974
  H           0.67386103014285      2.95264552514210      0.56180411948552
  H           0.18698623227872     -1.92286272393507     -0.30872811649200
  H           3.45249521907103     -0.53136067089483     -0.07658730008776
  H           6.04194649892272      4.75175549345029     -0.67172634908736
  H           2.94244056301015      3.97951165239577     -3.56705388110208
  H           1.97352446184721      2.26432983792603     -2.06575515012837
