24
Coordinates from ORCA-job Triclosan\Triclosan_PBE_6-311+G\Triclosan_PBE_6-311+G.orcainp E -1991.448760996081
  C          -0.72746364603266      1.32720613375940      0.29446361195781
  C           0.54989173912926      1.89169177675000      0.38325361922903
  C           1.67944164615746      1.09415547109413      0.20297935069944
  C           1.56202917033898     -0.28706907125324     -0.04609027569440
  C           0.28560867155778     -0.86177005712554     -0.13168351541511
  C          -0.83318987590633     -0.04407836909087      0.03599621372333
  Cl         -2.43380509420974     -0.77186564127382     -0.07874351719435
  O           2.65581837039696     -1.08187191496520     -0.20521272092324
  O           2.97839913899143      1.58502026133736      0.35833850449438
  C           3.44417584983793      2.54457151010339     -0.51971241859895
  C           4.59778524209316      3.25518425626949     -0.13845337330597
  C           5.15823407764761      4.21854318696135     -0.98006121446917
  C           4.55167244482388      4.46810865999325     -2.21434143275844
  C           3.40956304753379      3.77189214242862     -2.61719468627066
  C           2.86171442910126      2.80851346141274     -1.76515728030539
  Cl          5.24761034925978      5.68728452227445     -3.27437958944392
  Cl          5.34430390869988      2.92711146359894      1.40995907718323
  H          -1.61769453159016      1.94152742616122      0.43068293243226
  H           0.66943105895155      2.95748428368154      0.59012627339037
  H           0.18806067635601     -1.93053449960816     -0.32744310589924
  H           3.45554733351391     -0.53062135359724     -0.08432623124657
  H           6.04999690174500      4.76327138681490     -0.66912303174114
  H           2.94931687158637      3.97014081243362     -3.58593514037023
  H           1.97299222001682      2.25502415183964     -2.07377204947304
