24
Coordinates from ORCA-job Triclosan\Triclosan_PBE_6-311+G\Triclosan_PBE_6-311+G.orcainp E -1991.442421986099
  C      -0.498380      1.456720      0.098960
  C       0.836360      1.861870      0.139870
  C       1.858500      0.909640      0.076920
  C       1.527050     -0.445530      0.103270
  C       0.193990     -0.859110      0.065880
  C      -0.813110      0.098450      0.043280
  Cl     -2.458040     -0.389950     -0.044300
  O       2.486230     -1.418040      0.159240
  O       3.195400      1.239150      0.004080
  C       3.558400      2.365550     -0.713420
  C       4.599240      3.161890     -0.218400
  C       4.975450      4.330570     -0.889960
  C       4.312220      4.697790     -2.056160
  C       3.302130      3.893950     -2.580580
  C       2.944190      2.713370     -1.925990
  Cl      4.745030      6.153320     -2.864750
  Cl      5.438900      2.741890      1.230850
  H      -1.286770      2.204470      0.098980
  H       1.062640      2.922230      0.193350
  H      -0.040810     -1.921090      0.052350
  H       3.329410     -0.977310      0.373690
  H       5.776510      4.951890     -0.496780
  H       2.786880      4.180330     -3.495300
  H       2.168020      2.086870     -2.360910
24
Coordinates from ORCA-job Triclosan\Triclosan_PBE_6-311+G\Triclosan_PBE_6-311+G.orcainp E -1991.446760954384
  C      -0.581632      1.414469      0.227800
  C       0.742137      1.860563      0.179485
  C       1.790840      0.942641      0.042327
  C       1.511913     -0.433461      0.035483
  C       0.188192     -0.886921      0.079648
  C      -0.851471      0.042019      0.160634
  Cl     -2.501470     -0.512480      0.186866
  O       2.510078     -1.370570     -0.040053
  O       3.130112      1.299418     -0.004470
  C       3.517752      2.423477     -0.714253
  C       4.530887      3.227374     -0.168841
  C       4.987246      4.358261     -0.857279
  C       4.430027      4.678459     -2.096648
  C       3.442321      3.866826     -2.665556
  C       2.998585      2.734745     -1.978718
  Cl      4.975784      6.096930     -2.944911
  Cl      5.240664      2.835771      1.369664
  H      -1.394922      2.136108      0.315498
  H       0.945396      2.929848      0.252558
  H      -0.012236     -1.958820      0.047724
  H       3.366404     -0.913065      0.072456
  H       5.770305      4.981539     -0.424434
  H       3.017678      4.110198     -3.640534
  H       2.244850      2.095592     -2.440275
24
Coordinates from ORCA-job Triclosan\Triclosan_PBE_6-311+G\Triclosan_PBE_6-311+G.orcainp E -1991.448064977729
  C      -0.617264      1.397840      0.235096
  C       0.698573      1.865840      0.150059
  C       1.758614      0.963423      0.025917
  C       1.514716     -0.423034      0.006887
  C       0.200918     -0.899756      0.099671
  C      -0.851529      0.015906      0.207353
  Cl     -2.501781     -0.583231      0.303547
  O       2.535356     -1.325307     -0.117902
  O       3.099648      1.328655      0.016724
  C       3.498255      2.446840     -0.691924
  C       4.515568      3.245899     -0.142201
  C       5.013487      4.347934     -0.846232
  C       4.481108      4.648137     -2.104046
  C       3.469863      3.857978     -2.667097
  C       2.985609      2.757998     -1.956596
  Cl      5.090089      6.039688     -2.983962
  Cl      5.179214      2.859437      1.428310
  H      -1.444868      2.102719      0.333201
  H       0.892263      2.940946      0.189041
  H       0.020867     -1.976407      0.079810
  H       3.383358     -0.836422     -0.108097
  H       5.804165      4.961552     -0.411550
  H       3.066633      4.090340     -3.654379
  H       2.206576      2.131947     -2.397463
24
Coordinates from ORCA-job Triclosan\Triclosan_PBE_6-311+G\Triclosan_PBE_6-311+G.orcainp E -1991.448270845018
  C      -0.630977      1.390515      0.247754
  C       0.681987      1.868798      0.166718
  C       1.745518      0.974639      0.036198
  C       1.515283     -0.415108     -0.004722
  C       0.205503     -0.901823      0.088202
  C      -0.848830      0.007935      0.209936
  Cl     -2.496194     -0.608919      0.317633
  O       2.544110     -1.301634     -0.137610
  O       3.087175      1.345573      0.037001
  C       3.491876      2.455616     -0.681149
  C       4.513575      3.253468     -0.137199
  C       5.023825      4.343169     -0.849398
  C       4.496015      4.631766     -2.110984
  C       3.479162      3.848718     -2.670208
  C       2.984518      2.759762     -1.949795
  Cl      5.126592      6.007735     -3.006161
  Cl      5.162212      2.877548      1.443877
  H      -1.465029      2.085630      0.351279
  H       0.871763      2.943759      0.207516
  H       0.031715     -1.978780      0.058134
  H       3.382453     -0.797009     -0.164093
  H       5.816492      4.955193     -0.417498
  H       3.082283      4.076095     -3.660640
  H       2.198414      2.136275     -2.380620
24
Coordinates from ORCA-job Triclosan\Triclosan_PBE_6-311+G\Triclosan_PBE_6-311+G.orcainp E -1991.448364373621
  C      -0.636622      1.388371      0.250001
  C       0.675931      1.872337      0.186353
  C       1.741130      0.982673      0.054969
  C       1.519098     -0.409013     -0.005011
  C       0.209748     -0.900525      0.068296
  C      -0.844443      0.006960      0.192673
  Cl     -2.491296     -0.618683      0.281299
  O       2.553150     -1.286893     -0.129332
  O       3.082605      1.360351      0.065896
  C       3.490328      2.459868     -0.666513
  C       4.521794      3.255360     -0.137410
  C       5.034244      4.336402     -0.859942
  C       4.496608      4.617337     -2.118151
  C       3.470302      3.840864     -2.664994
  C       2.974825      2.759324     -1.933453
  Cl      5.132032      5.982015     -3.028521
  Cl      5.178348      2.886198      1.442033
  H      -1.475438      2.077221      0.351189
  H       0.864984      2.946576      0.236847
  H       0.037242     -1.976737      0.022523
  H       3.384786     -0.772383     -0.173642
  H       5.833452      4.946352     -0.438337
  H       3.067029      4.067058     -3.652729
  H       2.179604      2.137888     -2.349874
24
Coordinates from ORCA-job Triclosan\Triclosan_PBE_6-311+G\Triclosan_PBE_6-311+G.orcainp E -1991.448405211721
  C      -0.639306      1.388058      0.249224
  C       0.673169      1.875139      0.202920
  C       1.740328      0.988444      0.070828
  C       1.523011     -0.403647     -0.002720
  C       0.213405     -0.897965      0.049885
  C      -0.842176      0.007548      0.173055
  Cl     -2.488722     -0.621915      0.234966
  O       2.560146     -1.278242     -0.118943
  O       3.080469      1.373060      0.091869
  C       3.489602      2.463185     -0.653284
  C       4.531059      3.255307     -0.138750
  C       5.042516      4.330372     -0.870873
  C       4.493505      4.607495     -2.124777
  C       3.458757      3.834415     -2.658818
  C       2.964529      2.758722     -1.917500
  Cl      5.126697      5.964614     -3.047239
  Cl      5.201984      2.889997      1.434995
  H      -1.480954      2.073437      0.349249
  H       0.861479      2.948667      0.267329
  H       0.041602     -1.973454     -0.010213
  H       3.389826     -0.760270     -0.161056
  H       5.848952      4.937928     -0.460045
  H       3.047069      4.059348     -3.643278
  H       2.162494      2.138675     -2.322655
24
Coordinates from ORCA-job Triclosan\Triclosan_PBE_6-311+G\Triclosan_PBE_6-311+G.orcainp E -1991.448472127827
  C      -0.649793      1.383782      0.250855
  C       0.660068      1.880804      0.241285
  C       1.735109      1.004591      0.104487
  C       1.531698     -0.387242     -0.001872
  C       0.224216     -0.891552      0.008814
  C      -0.838935      0.004759      0.132516
  Cl     -2.481613     -0.636754      0.137918
  O       2.577358     -1.252325     -0.109993
  O       3.070302      1.407749      0.152329
  C       3.484938      2.474568     -0.622016
  C       4.549933      3.256021     -0.140175
  C       5.063473      4.314010     -0.895868
  C       4.493085      4.583068     -2.141994
  C       3.437500      3.818906     -2.645961
  C       2.941209      2.760649     -1.880818
  Cl      5.126254      5.919134     -3.093659
  Cl      5.249351      2.900058      1.422411
  H      -1.498937      2.059485      0.352923
  H       0.842166      2.952829      0.339484
  H       0.058811     -1.965625     -0.083522
  H       3.402974     -0.726726     -0.137078
  H       5.887544      4.913699     -0.509436
  H       3.009666      4.038585     -3.624679
  H       2.123064      2.146446     -2.261781
24
Coordinates from ORCA-job Triclosan\Triclosan_PBE_6-311+G\Triclosan_PBE_6-311+G.orcainp E -1991.448567661060
  C      -0.676576      1.368092      0.264442
  C       0.623367      1.888420      0.309789
  C       1.717741      1.038743      0.157414
  C       1.546645     -0.350518     -0.010480
  C       0.248476     -0.878458     -0.060139
  C      -0.833843     -0.007110      0.074933
  Cl     -2.462870     -0.676863     -0.000051
  O       2.610468     -1.193008     -0.120632
  O       3.040249      1.479041      0.252892
  C       3.470182      2.501202     -0.570599
  C       4.574619      3.258003     -0.139941
  C       5.101290      4.279218     -0.936472
  C       4.505809      4.534789     -2.173938
  C       3.414029      3.791970     -2.629478
  C       2.903758      2.771224     -1.823318
  Cl      5.152971      5.825592     -3.176468
  Cl      5.308893      2.917997      1.409536
  H      -1.541669      2.021350      0.378085
  H       0.786057      2.956869      0.465508
  H       0.103084     -1.949315     -0.206687
  H       3.426843     -0.652454     -0.112725
  H       5.955336      4.860173     -0.588603
  H       2.967087      4.000638     -3.602078
  H       2.057496      2.173324     -2.166819
24
Coordinates from ORCA-job Triclosan\Triclosan_PBE_6-311+G\Triclosan_PBE_6-311+G.orcainp E -1991.448653170492
  C      -0.706227      1.346461      0.280144
  C       0.580563      1.892249      0.364665
  C       1.696494      1.073205      0.196563
  C       1.560045     -0.311472     -0.024022
  C       0.274417     -0.865623     -0.114015
  C      -0.829869     -0.024522      0.035643
  Cl     -2.441515     -0.725812     -0.091290
  O       2.642386     -1.129042     -0.147426
  O       3.003449      1.550136      0.333349
  C       3.452786      2.529152     -0.530746
  C       4.592066      3.256061     -0.139797
  C       5.137119      4.240222     -0.969688
  C       4.527299      4.489543     -2.201911
  C       3.401737      3.774123     -2.617920
  C       2.871426      2.791039     -1.778330
  Cl      5.197229      5.734955     -3.246029
  Cl      5.346437      2.925688      1.402350
  H      -1.587530      1.975385      0.406978
  H       0.719074      2.957148      0.563684
  H       0.154187     -1.933338     -0.301392
  H       3.449082     -0.576870     -0.095182
  H       6.017998      4.798049     -0.651782
  H       2.942567      3.975498     -3.586480
  H       1.998220      2.216685     -2.093195
24
Coordinates from ORCA-job Triclosan\Triclosan_PBE_6-311+G\Triclosan_PBE_6-311+G.orcainp E -1991.448732737941
  C      -0.721805      1.332862      0.288259
  C       0.557660      1.892048      0.379876
  C       1.684895      1.089066      0.204502
  C       1.563309     -0.292644     -0.036852
  C       0.284525     -0.861658     -0.129459
  C      -0.831929     -0.038361      0.030389
  Cl     -2.434639     -0.757930     -0.097327
  O       2.653636     -1.097402     -0.179331
  O       2.983747      1.581232      0.358890
  C       3.445659      2.541721     -0.519823
  C       4.597976      3.254270     -0.139450
  C       5.153608      4.222463     -0.980121
  C       4.543948      4.473287     -2.212584
  C       3.404084      3.772049     -2.615415
  C       2.861115      2.805130     -1.765041
  Cl      5.229638      5.699012     -3.270221
  Cl      5.352475      2.925781      1.404083
  H      -1.609976      1.950756      0.422672
  H       0.682357      2.957011      0.588499
  H       0.179318     -1.929701     -0.325197
  H       3.457055     -0.546562     -0.085441
  H       6.044736      4.768878     -0.670174
  H       2.942562      3.971258     -3.583463
  H       1.975487      2.246355     -2.073102
24
Coordinates from ORCA-job Triclosan\Triclosan_PBE_6-311+G\Triclosan_PBE_6-311+G.orcainp E -1991.448755435919
  C      -0.723889      1.330270      0.291869
  C       0.554995      1.891102      0.376427
  C       1.682852      1.089675      0.198910
  C       1.560708     -0.291745     -0.043731
  C       0.282556     -0.863090     -0.125238
  C      -0.834699     -0.042333      0.039959
  Cl     -2.437198     -0.765745     -0.070216
  O       2.650977     -1.092993     -0.200204
  O       2.982408      1.578936      0.352339
  C       3.446136      2.541992     -0.522990
  C       4.595893      3.256376     -0.137625
  C       5.153882      4.224041     -0.976348
  C       4.549541      4.474431     -2.211556
  C       3.410983      3.773247     -2.617867
  C       2.865283      2.806118     -1.769260
  Cl      5.241234      5.698925     -3.267645
  Cl      5.341666      2.929123      1.411258
  H      -1.611914      1.948025      0.427660
  H       0.677987      2.957417      0.578829
  H       0.180296     -1.932325     -0.316285
  H       3.454370     -0.544535     -0.093022
  H       6.042987      4.771592     -0.662443
  H       2.952551      3.971282     -3.587598
  H       1.979835      2.249132     -2.081054
24
Coordinates from ORCA-job Triclosan\Triclosan_PBE_6-311+G\Triclosan_PBE_6-311+G.orcainp E -1991.448759102810
  C      -0.727425      1.327201      0.294967
  C       0.549849      1.891320      0.382644
  C       1.679791      1.093805      0.202564
  C       1.561842     -0.287084     -0.046604
  C       0.285280     -0.861659     -0.130680
  C      -0.833886     -0.044538      0.037571
  Cl     -2.434426     -0.772410     -0.074875
  O       2.654521     -1.083455     -0.207095
  O       2.978251      1.585484      0.358480
  C       3.443910      2.545223     -0.519434
  C       4.596838      3.256505     -0.137357
  C       5.157592      4.219553     -0.979118
  C       4.552606      4.468647     -2.214259
  C       3.410899      3.771416     -2.617436
  C       2.862559      2.808435     -1.765560
  Cl      5.248829      5.687270     -3.274546
  Cl      5.342383      2.929884      1.411954
  H      -1.617380      1.941853      0.431735
  H       0.669764      2.957319      0.588390
  H       0.186820     -1.930469     -0.325890
  H       3.455778     -0.533385     -0.092016
  H       6.048935      4.764694     -0.667534
  H       2.951827      3.968768     -3.586952
  H       1.974282      2.254542     -2.074781
24
Coordinates from ORCA-job Triclosan\Triclosan_PBE_6-311+G\Triclosan_PBE_6-311+G.orcainp E -1991.448760586966
  C      -0.726518      1.327974      0.296191
  C       0.551347      1.891405      0.382704
  C       1.680169      1.092978      0.201477
  C       1.561168     -0.288202     -0.047586
  C       0.284104     -0.861823     -0.130519
  C      -0.833785     -0.043416      0.038887
  Cl     -2.435115     -0.770244     -0.071793
  O       2.653658     -1.084200     -0.208742
  O       2.979748      1.582383      0.355429
  C       3.444837      2.543711     -0.521033
  C       4.595976      3.257055     -0.137308
  C       5.156105      4.221347     -0.977879
  C       4.551806      4.469315     -2.213553
  C       3.411937      3.770753     -2.618668
  C       2.864374      2.806340     -1.767683
  Cl      5.247725      5.689453     -3.272479
  Cl      5.339504      2.930895      1.413048
  H      -1.616018      1.943170      0.433121
  H       0.672032      2.957308      0.588376
  H       0.185349     -1.930598     -0.325603
  H       3.454472     -0.533924     -0.090869
  H       6.045898      4.768165     -0.664992
  H       2.953404      3.967933     -3.588429
  H       1.977261      2.251143     -2.077927
24
Coordinates from ORCA-job Triclosan\Triclosan_PBE_6-311+G\Triclosan_PBE_6-311+G.orcainp E -1991.448759000039
  C      -0.730329      1.324793      0.297036
  C       0.545775      1.892033      0.388557
  C       1.676892      1.097641      0.206002
  C       1.563116     -0.283336     -0.048248
  C       0.287949     -0.860524     -0.136609
  C      -0.832167     -0.045538      0.033563
  Cl     -2.431177     -0.776766     -0.084250
  O       2.659044     -1.074088     -0.209232
  O       2.975039      1.590432      0.363349
  C       3.442532      2.546945     -0.517030
  C       4.598722      3.255015     -0.138549
  C       5.161323      4.214683     -0.982578
  C       4.553806      4.463067     -2.216589
  C       3.409151      3.770366     -2.616957
  C       2.859279      2.810303     -1.762201
  Cl      5.253190      5.677631     -3.279896
  Cl      5.345181      2.927286      1.410033
  H      -1.622219      1.936419      0.434082
  H       0.662905      2.957350      0.599192
  H       0.193530     -1.928831     -0.336185
  H       3.456747     -0.521219     -0.081950
  H       6.054908      4.757460     -0.673666
  H       2.948081      3.968471     -3.585280
  H       1.968160      2.259328     -2.068424
24
Coordinates from ORCA-job Triclosan\Triclosan_PBE_6-311+G\Triclosan_PBE_6-311+G.orcainp E -1991.448760891082
  C      -0.727948      1.326816      0.294659
  C       0.549172      1.891758      0.383957
  C       1.679052      1.094741      0.203524
  C       1.562292     -0.286469     -0.046297
  C       0.286076     -0.861578     -0.132357
  C      -0.832986     -0.044361      0.035521
  Cl     -2.433299     -0.772754     -0.079811
  O       2.656358     -1.080756     -0.205577
  O       2.977790      1.586106      0.359358
  C       3.443840      2.545105     -0.519134
  C       4.597998      3.255163     -0.138433
  C       5.158822      4.217809     -0.980533
  C       4.552009      4.467252     -2.214699
  C       3.409350      3.771731     -2.617012
  C       2.861139      2.808986     -1.764480
  Cl      5.248530      5.685552     -3.275381
  Cl      5.344686      2.927046      1.409912
  H      -1.618471      1.940702      0.430870
  H       0.668334      2.957500      0.591350
  H       0.188995     -1.930278     -0.328674
  H       3.455895     -0.529297     -0.084351
  H       6.050994      4.762104     -0.670034
  H       2.948913      3.970023     -3.585643
  H       1.971900      2.256018     -2.072564
24
Coordinates from ORCA-job Triclosan\Triclosan_PBE_6-311+G\Triclosan_PBE_6-311+G.orcainp E -1991.448760996081
  C      -0.727464      1.327206      0.294464
  C       0.549892      1.891692      0.383254
  C       1.679442      1.094155      0.202979
  C       1.562029     -0.287069     -0.046090
  C       0.285609     -0.861770     -0.131684
  C      -0.833190     -0.044078      0.035996
  Cl     -2.433805     -0.771866     -0.078744
  O       2.655818     -1.081872     -0.205213
  O       2.978399      1.585020      0.358339
  C       3.444176      2.544572     -0.519712
  C       4.597785      3.255184     -0.138453
  C       5.158234      4.218543     -0.980061
  C       4.551672      4.468109     -2.214341
  C       3.409563      3.771892     -2.617195
  C       2.861714      2.808513     -1.765157
  Cl      5.247610      5.687285     -3.274380
  Cl      5.344304      2.927111      1.409959
  H      -1.617695      1.941527      0.430683
  H       0.669431      2.957484      0.590126
  H       0.188061     -1.930534     -0.327443
  H       3.455547     -0.530621     -0.084326
  H       6.049997      4.763271     -0.669123
  H       2.949317      3.970141     -3.585935
  H       1.972992      2.255024     -2.073772
