33
Coordinates from ORCA-job Dexketoprofen\Dexketoprofen_PBE_6-311+G\Dexketoprofen_PBE_6-311+G.orcainp E -843.047706535228
  H       1.096620     -0.204250      0.326760
  C       2.137970     -0.111080     -0.010520
  C       2.126490      0.628040     -1.353530
  C       2.826660      0.751010      1.050360
  O       3.428370      0.075300      2.055840
  O       2.792360      1.973800      1.053180
  C       2.717610     -1.512460     -0.178170
  C       1.934000     -2.645630      0.113490
  C       2.467640     -3.936280     -0.026370
  C       3.771140     -4.099040     -0.505320
  C       4.554480     -2.984060     -0.794800
  C       4.035830     -1.700720     -0.623710
  C       1.687330     -5.163750      0.284290
  O       1.872990     -6.170870     -0.395240
  C       0.709640     -5.216690      1.402780
  C       0.854150     -4.432050      2.553800
  C      -0.089410     -4.514770      3.579380
  C      -1.163440     -5.397910      3.472030
  C      -1.292130     -6.207760      2.344340
  C      -0.355680     -6.121550      1.313020
  H       1.607840      1.589440     -1.266130
  H       1.616620      0.042150     -2.125850
  H       3.141630      0.843600     -1.706810
  H       3.413980     -0.896960      1.965340
  H       0.900040     -2.519110      0.430070
  H       4.177980     -5.098100     -0.655070
  H       5.569680     -3.118220     -1.162310
  H       4.671990     -0.847090     -0.857040
  H       1.702840     -3.767060      2.680650
  H       0.018440     -3.899190      4.469450
  H      -1.893260     -5.465960      4.274870
  H      -2.118240     -6.910830      2.269520
  H      -0.455990     -6.765520      0.440940
33
Coordinates from ORCA-job Dexketoprofen\Dexketoprofen_PBE_6-311+G\Dexketoprofen_PBE_6-311+G.orcainp E -843.050702222891
  H       1.102968     -0.263082      0.388873
  C       2.134076     -0.141584      0.011080
  C       2.052194      0.602958     -1.335095
  C       2.826624      0.728278      1.070270
  O       3.471326      0.081678      2.066219
  O       2.800582      1.947122      1.066777
  C       2.738838     -1.531125     -0.149190
  C       1.984047     -2.672716      0.172334
  C       2.515410     -3.962958     -0.009472
  C       3.818338     -4.110718     -0.513855
  C       4.584262     -2.981554     -0.812834
  C       4.049392     -1.700834     -0.631730
  C       1.724573     -5.199563      0.281406
  O       1.898820     -6.212500     -0.410126
  C       0.716703     -5.213845      1.384864
  C       0.844004     -4.393481      2.521154
  C      -0.098589     -4.470102      3.552821
  C      -1.182086     -5.350715      3.449251
  C      -1.313772     -6.171430      2.320936
  C      -0.364813     -6.109765      1.296808
  H       1.520141      1.558694     -1.223804
  H       1.514988     -0.000867     -2.079958
  H       3.053109      0.825744     -1.734497
  H       3.457579     -0.890905      1.957948
  H       0.958692     -2.554022      0.531680
  H       4.232630     -5.109293     -0.667097
  H       5.601034     -3.100156     -1.193621
  H       4.666934     -0.831687     -0.874954
  H       1.692952     -3.715333      2.630176
  H       0.009884     -3.840240      4.438676
  H      -1.924129     -5.400118      4.249891
  H      -2.155691     -6.862954      2.241545
  H      -0.464851     -6.756499      0.422766
33
Coordinates from ORCA-job Dexketoprofen\Dexketoprofen_PBE_6-311+G\Dexketoprofen_PBE_6-311+G.orcainp E -843.050994664997
  H       1.106040     -0.251746      0.331097
  C       2.142926     -0.128063     -0.039441
  C       2.071468      0.607238     -1.392741
  C       2.809226      0.748399      1.034459
  O       3.370867      0.119730      2.092095
  O       2.758507      1.965453      1.040935
  C       2.751428     -1.518496     -0.155116
  C       1.989476     -2.652695      0.167537
  C       2.512838     -3.951186      0.003054
  C       3.826923     -4.109105     -0.480326
  C       4.605630     -2.984218     -0.769476
  C       4.071605     -1.697425     -0.612540
  C       1.688185     -5.181709      0.249845
  O       1.868117     -6.194937     -0.447022
  C       0.697482     -5.202600      1.374260
  C       0.885164     -4.453934      2.556170
  C      -0.027275     -4.563499      3.613475
  C      -1.149037     -5.396634      3.490528
  C      -1.346094     -6.140604      2.314688
  C      -0.422097     -6.055283      1.269640
  H       1.545883      1.567962     -1.288509
  H       1.527788     -0.008307     -2.125114
  H       3.078268      0.808721     -1.792198
  H       3.343122     -0.853169      1.972392
  H       0.958308     -2.521305      0.508275
  H       4.235577     -5.114043     -0.612611
  H       5.633238     -3.108366     -1.122327
  H       4.692791     -0.828219     -0.851892
  H       1.763966     -3.813622      2.672358
  H       0.135650     -3.995988      4.534254
  H      -1.869831     -5.468368      4.310998
  H      -2.221527     -6.789231      2.215784
  H      -0.568443     -6.638320      0.356707
33
Coordinates from ORCA-job Dexketoprofen\Dexketoprofen_PBE_6-311+G\Dexketoprofen_PBE_6-311+G.orcainp E -843.051368978091
  H       1.102537     -0.265511      0.349608
  C       2.132733     -0.136957     -0.036161
  C       2.040588      0.595507     -1.387185
  C       2.803318      0.744747      1.029805
  O       3.389900      0.119707      2.078997
  O       2.810107      1.963611      0.996614
  C       2.749735     -1.523252     -0.152432
  C       1.999645     -2.662438      0.178935
  C       2.533832     -3.956964      0.020961
  C       3.845031     -4.105750     -0.472938
  C       4.611930     -2.976067     -0.772270
  C       4.068173     -1.693377     -0.619099
  C       1.718076     -5.190685      0.275679
  O       1.873824     -6.192791     -0.440170
  C       0.710877     -5.199829      1.383722
  C       0.899269     -4.470410      2.577038
  C      -0.027612     -4.574593      3.621418
  C      -1.162389     -5.385636      3.476434
  C      -1.360077     -6.111022      2.289402
  C      -0.422962     -6.030633      1.256864
  H       1.520081      1.556534     -1.272771
  H       1.481119     -0.022621     -2.104405
  H       3.040794      0.789577     -1.804134
  H       3.341224     -0.853228      1.960966
  H       0.971887     -2.537272      0.530582
  H       4.259213     -5.108400     -0.601317
  H       5.638132     -3.092239     -1.129617
  H       4.677647     -0.819170     -0.867297
  H       1.787331     -3.847484      2.706805
  H       0.136496     -4.022375      4.550174
  H      -1.891813     -5.455315      4.287945
  H      -2.246115     -6.740455      2.172508
  H      -0.566362     -6.598780      0.334580
33
Coordinates from ORCA-job Dexketoprofen\Dexketoprofen_PBE_6-311+G\Dexketoprofen_PBE_6-311+G.orcainp E -843.051485317562
  H       1.110800     -0.279470      0.389985
  C       2.134128     -0.149747     -0.010853
  C       2.023845      0.592271     -1.353172
  C       2.823756      0.722880      1.048954
  O       3.391691      0.083779      2.101976
  O       2.841796      1.942572      1.018646
  C       2.748490     -1.535612     -0.149918
  C       2.003740     -2.678966      0.181317
  C       2.540448     -3.969282      0.010029
  C       3.847125     -4.112091     -0.493591
  C       4.607000     -2.979765     -0.796670
  C       4.061722     -1.700298     -0.632380
  C       1.732788     -5.202683      0.276546
  O       1.904279     -6.214739     -0.417233
  C       0.719109     -5.200458      1.374955
  C       0.880268     -4.421180      2.538043
  C      -0.054069     -4.504549      3.576450
  C      -1.167652     -5.346277      3.454288
  C      -1.339072     -6.120014      2.295559
  C      -0.395536     -6.057649      1.268414
  H       1.511986      1.554807     -1.221110
  H       1.448079     -0.016539     -2.064512
  H       3.017261      0.783530     -1.785114
  H       3.325790     -0.887774      1.982607
  H       0.981803     -2.559434      0.550795
  H       4.261776     -5.112878     -0.631085
  H       5.628701     -3.091216     -1.166130
  H       4.665608     -0.823579     -0.882455
  H       1.749944     -3.769710      2.646499
  H       0.087711     -3.911478      4.482514
  H      -1.901754     -5.401279      4.261390
  H      -2.209009     -6.773100      2.196715
  H      -0.516382     -6.663641      0.367779
33
Coordinates from ORCA-job Dexketoprofen\Dexketoprofen_PBE_6-311+G\Dexketoprofen_PBE_6-311+G.orcainp E -843.051557262182
  H       1.110579     -0.268872      0.375716
  C       2.135608     -0.142643     -0.022545
  C       2.032441      0.593934     -1.368342
  C       2.823529      0.730933      1.037643
  O       3.356626      0.093115      2.110433
  O       2.870088      1.949070      0.991241
  C       2.748173     -1.530348     -0.152718
  C       1.998901     -2.671956      0.174845
  C       2.534794     -3.963591      0.009460
  C       3.844550     -4.108962     -0.484994
  C       4.608762     -2.978549     -0.783663
  C       4.064923     -1.698052     -0.624483
  C       1.721996     -5.195360      0.269443
  O       1.895357     -6.206584     -0.424902
  C       0.715006     -5.199600      1.374257
  C       0.891547     -4.440323      2.548435
  C      -0.035641     -4.532426      3.592455
  C      -1.157379     -5.362227      3.465269
  C      -1.343853     -6.116470      2.296131
  C      -0.407161     -6.046419      1.263348
  H       1.526067      1.560040     -1.240426
  H       1.453927     -0.015143     -2.077445
  H       3.027995      0.777095     -1.798975
  H       3.271005     -0.877851      1.999437
  H       0.973458     -2.549785      0.533539
  H       4.257267     -5.111212     -0.618714
  H       5.632927     -3.092001     -1.146147
  H       4.671334     -0.822071     -0.871575
  H       1.768962     -3.799685      2.660183
  H       0.118449     -3.955220      4.506975
  H      -1.885938     -5.423931      4.277187
  H      -2.220103     -6.760876      2.194013
  H      -0.538025     -6.637601      0.354158
33
Coordinates from ORCA-job Dexketoprofen\Dexketoprofen_PBE_6-311+G\Dexketoprofen_PBE_6-311+G.orcainp E -843.051607752795
  H       1.115656     -0.260562      0.368565
  C       2.138839     -0.137506     -0.036854
  C       2.032189      0.588399     -1.387681
  C       2.834930      0.737057      1.017343
  O       3.271258      0.108331      2.140449
  O       2.951388      1.947825      0.935472
  C       2.750942     -1.526803     -0.156672
  C       2.000278     -2.667861      0.169862
  C       2.538398     -3.959913      0.011059
  C       3.849660     -4.105222     -0.478544
  C       4.615120     -2.975389     -0.775294
  C       4.070666     -1.695097     -0.620042
  C       1.723573     -5.191102      0.270136
  O       1.882271     -6.195634     -0.437115
  C       0.718394     -5.197144      1.377193
  C       0.917139     -4.471396      2.569237
  C      -0.005785     -4.571410      3.616262
  C      -1.145258     -5.373794      3.474545
  C      -1.353697     -6.094839      2.288323
  C      -0.420954     -6.018959      1.252583
  H       1.536914      1.560677     -1.261373
  H       1.440541     -0.021754     -2.085237
  H       3.026362      0.757216     -1.827332
  H       3.129825     -0.858433      2.053029
  H       0.971782     -2.544637      0.519406
  H       4.260967     -5.108855     -0.608137
  H       5.641248     -3.088379     -1.133199
  H       4.676077     -0.817751     -0.865758
  H       1.810534     -3.854617      2.689787
  H       0.166242     -4.021311      4.544598
  H      -1.870486     -5.441345      4.289437
  H      -2.243969     -6.718518      2.176096
  H      -0.564876     -6.584845      0.329094
33
Coordinates from ORCA-job Dexketoprofen\Dexketoprofen_PBE_6-311+G\Dexketoprofen_PBE_6-311+G.orcainp E -843.051662591805
  H       1.120800     -0.257802      0.383471
  C       2.140284     -0.136491     -0.031395
  C       2.024593      0.588549     -1.381395
  C       2.850854      0.733416      1.016553
  O       3.261840      0.104717      2.149907
  O       3.018701      1.936261      0.914026
  C       2.749495     -1.526920     -0.155898
  C       1.997092     -2.667974      0.166351
  C       2.535077     -3.959842      0.005224
  C       3.847262     -4.104957     -0.481309
  C       4.614127     -2.974943     -0.773868
  C       4.070081     -1.694889     -0.616575
  C       1.719159     -5.190495      0.261879
  O       1.891213     -6.200932     -0.433618
  C       0.716219     -5.197874      1.370762
  C       0.910689     -4.459401      2.555553
  C      -0.009892     -4.557583      3.604771
  C      -1.142280     -5.371357      3.472101
  C      -1.346332     -6.105111      2.292993
  C      -0.416000     -6.030515      1.254984
  H       1.534850      1.563159     -1.251220
  H       1.424077     -0.019247     -2.073223
  H       3.015451      0.753299     -1.829723
  H       3.091384     -0.858140      2.074201
  H       0.968366     -2.544969      0.515293
  H       4.257767     -5.108735     -0.612027
  H       5.641041     -3.087534     -1.129364
  H       4.676569     -0.816999     -0.857425
  H       1.798318     -3.832863      2.667561
  H       0.158305     -3.997030      4.527410
  H      -1.865747     -5.437597      4.288504
  H      -2.231398     -6.737225      2.188145
  H      -0.555798     -6.605545      0.336589
33
Coordinates from ORCA-job Dexketoprofen\Dexketoprofen_PBE_6-311+G\Dexketoprofen_PBE_6-311+G.orcainp E -843.051700501476
  H       1.133792     -0.260137      0.422165
  C       2.143017     -0.138284     -0.016189
  C       1.995823      0.579019     -1.366958
  C       2.880580      0.736691      1.008051
  O       3.310737      0.115385      2.137819
  O       3.060018      1.936239      0.889280
  C       2.752267     -1.528283     -0.148226
  C       2.002563     -2.670069      0.176923
  C       2.540849     -3.961238      0.010102
  C       3.850833     -4.104633     -0.482921
  C       4.614818     -2.973245     -0.778984
  C       4.069741     -1.693971     -0.617771
  C       1.728280     -5.193683      0.268267
  O       1.903667     -6.204991     -0.425772
  C       0.717923     -5.199970      1.370646
  C       0.897059     -4.448253      2.549595
  C      -0.032109     -4.542286      3.591766
  C      -1.157408     -5.365866      3.457432
  C      -1.345740     -6.113117      2.284146
  C      -0.407177     -6.041767      1.253131
  H       1.504439      1.552515     -1.233229
  H       1.384513     -0.034050     -2.044373
  H       2.976283      0.747022     -1.836536
  H       3.136352     -0.847473      2.078137
  H       0.975747     -2.548865      0.531960
  H       4.262335     -5.107403     -0.617500
  H       5.639759     -3.084596     -1.140204
  H       4.674590     -0.815509     -0.860484
  H       1.778540     -3.813622      2.663702
  H       0.123332     -3.971039      4.509924
  H      -1.887823     -5.428738      4.267763
  H      -2.225162     -6.752684      2.178053
  H      -0.536267     -6.626669      0.339525
33
Coordinates from ORCA-job Dexketoprofen\Dexketoprofen_PBE_6-311+G\Dexketoprofen_PBE_6-311+G.orcainp E -843.051727757266
  H       1.146629     -0.259822      0.450199
  C       2.146961     -0.138480     -0.007780
  C       1.976210      0.570265     -1.359581
  C       2.909403      0.737605      0.996378
  O       3.304821      0.131377      2.147153
  O       3.136809      1.925434      0.847977
  C       2.755611     -1.528875     -0.143481
  C       2.006090     -2.670778      0.180147
  C       2.544564     -3.961636      0.009892
  C       3.853501     -4.104054     -0.486465
  C       4.616435     -2.971873     -0.783190
  C       4.071391     -1.693029     -0.617612
  C       1.734271     -5.195140      0.269914
  O       1.909227     -6.206448     -0.424805
  C       0.720484     -5.200709      1.369513
  C       0.894332     -4.445445      2.547166
  C      -0.038451     -4.538126      3.586337
  C      -1.162046     -5.363906      3.449977
  C      -1.345029     -6.114609      2.277974
  C      -0.402947     -6.044429      1.249934
  H       1.486771      1.544830     -1.224654
  H       1.354076     -0.046522     -2.023682
  H       2.948585      0.736463     -1.846562
  H       3.097161     -0.825904      2.114564
  H       0.980373     -2.550405      0.538558
  H       4.265355     -5.106379     -0.622957
  H       5.640411     -3.082489     -1.147341
  H       4.675115     -0.813772     -0.860697
  H       1.774444     -3.809251      2.663101
  H       0.112554     -3.964285      4.503598
  H      -1.895542     -5.425535      4.257629
  H      -2.223093     -6.755828      2.170600
  H      -0.528308     -6.631816      0.337436
33
Coordinates from ORCA-job Dexketoprofen\Dexketoprofen_PBE_6-311+G\Dexketoprofen_PBE_6-311+G.orcainp E -843.051741016797
  H       1.157224     -0.257799      0.470331
  C       2.150694     -0.137462     -0.002274
  C       1.962407      0.561634     -1.356206
  C       2.930133      0.743709      0.983712
  O       3.304254      0.156361      2.151345
  O       3.189693      1.921254      0.808180
  C       2.759701     -1.528390     -0.137698
  C       2.009762     -2.669855      0.185468
  C       2.546636     -3.960954      0.011819
  C       3.854816     -4.103634     -0.487010
  C       4.618103     -2.971582     -0.783573
  C       4.074110     -1.692504     -0.615294
  C       1.736034     -5.194614      0.269933
  O       1.910032     -6.204744     -0.426950
  C       0.720872     -5.201109      1.368340
  C       0.893636     -4.449149      2.548313
  C      -0.040752     -4.543614      3.585912
  C      -1.165164     -5.367817      3.445730
  C      -1.347241     -6.115032      2.271299
  C      -0.403478     -6.043179      1.244890
  H       1.473146      1.536648     -1.223096
  H       1.333368     -0.060486     -2.008861
  H       2.928661      0.725632     -1.856104
  H       3.070819     -0.795199      2.143722
  H       0.984765     -2.549200      0.545809
  H       4.266082     -5.105903     -0.625463
  H       5.641220     -3.082657     -1.150040
  H       4.677421     -0.813209     -0.859628
  H       1.774223     -3.814234      2.667856
  H       0.109529     -3.972599      4.505073
  H      -1.899940     -5.430832      4.252148
  H      -2.225881     -6.754975      2.160781
  H      -0.528716     -6.628074      0.330777
33
Coordinates from ORCA-job Dexketoprofen\Dexketoprofen_PBE_6-311+G\Dexketoprofen_PBE_6-311+G.orcainp E -843.051704640375
  H       1.233911     -0.242086      0.606522
  C       2.176277     -0.132732      0.038348
  C       1.868309      0.501468     -1.322608
  C       3.060609      0.781044      0.894587
  O       3.329871      0.346799      2.155162
  O       3.502976      1.860918      0.543231
  C       2.786110     -1.527050     -0.097984
  C       2.032848     -2.666128      0.220355
  C       2.559477     -3.958407      0.024706
  C       3.863282     -4.102152     -0.487590
  C       4.629657     -2.970917     -0.779731
  C       4.092702     -1.690722     -0.593858
  C       1.744797     -5.192043      0.267387
  O       1.916525     -6.195104     -0.440797
  C       0.720868     -5.205835      1.357816
  C       0.887355     -4.476256      2.552649
  C      -0.057683     -4.581292      3.579597
  C      -1.187902     -5.393384      3.414418
  C      -1.364468     -6.117604      2.224717
  C      -0.409719     -6.035840      1.209184
  H       1.381313      1.479388     -1.198837
  H       1.194057     -0.153833     -1.893169
  H       2.788229      0.646735     -1.908730
  H       2.944843     -0.539301      2.307369
  H       1.011914     -2.543906      0.591276
  H       4.269747     -5.104207     -0.640458
  H       5.648066     -3.084338     -1.158574
  H       4.694512     -0.810965     -0.841744
  H       1.771393     -3.850634      2.694592
  H       0.088265     -4.028608      4.510642
  H      -1.930952     -5.464610      4.212622
  H      -2.247331     -6.747950      2.093719
  H      -0.533685     -6.604021      0.284419
33
Coordinates from ORCA-job Dexketoprofen\Dexketoprofen_PBE_6-311+G\Dexketoprofen_PBE_6-311+G.orcainp E -843.051765916421
  H       1.187163     -0.253689      0.527524
  C       2.160120     -0.136195      0.014239
  C       1.921331      0.536845     -1.344128
  C       2.985280      0.758220      0.948167
  O       3.309374      0.228830      2.158028
  O       3.331265      1.899118      0.695470
  C       2.770719     -1.527789     -0.122651
  C       2.019998     -2.668576      0.198762
  C       2.552957     -3.959990      0.016486
  C       3.859493     -4.102796     -0.487725
  C       4.623621     -2.970984     -0.782515
  C       4.082154     -1.691448     -0.607387
  C       1.740710     -5.193583      0.268713
  O       1.914667     -6.201458     -0.431474
  C       0.722146     -5.202518      1.363985
  C       0.893450     -4.460841      2.550562
  C      -0.045491     -4.558811      3.583714
  C      -1.173629     -5.376141      3.432852
  C      -1.354506     -6.113051      2.251716
  C      -0.406056     -6.037984      1.229873
  H       1.433078      1.512999     -1.214092
  H       1.272422     -0.099626     -1.962894
  H       2.869003      0.693099     -1.880751
  H       3.000139     -0.698376      2.220196
  H       0.996916     -2.547471      0.564218
  H       4.269128     -5.104921     -0.631803
  H       5.645041     -3.082794     -1.153558
  H       4.684837     -0.811998     -0.853091
  H       1.776333     -3.830921      2.679576
  H       0.103966     -3.995928      4.508046
  H      -1.911856     -5.441846      4.235928
  H      -2.235919     -6.747611      2.132231
  H      -0.531684     -6.615337      0.311021
33
Coordinates from ORCA-job Dexketoprofen\Dexketoprofen_PBE_6-311+G\Dexketoprofen_PBE_6-311+G.orcainp E -843.051769067326
  H       1.184424     -0.256707      0.526211
  C       2.158028     -0.137779      0.014452
  C       1.920334      0.540006     -1.342025
  C       2.982492      0.752706      0.952947
  O       3.316221      0.213362      2.155704
  O       3.320447      1.897965      0.709079
  C       2.768432     -1.528639     -0.126432
  C       2.018696     -2.670276      0.194712
  C       2.553573     -3.961115      0.014821
  C       3.860670     -4.102832     -0.488035
  C       4.623400     -2.970361     -0.783619
  C       4.080435     -1.691287     -0.609803
  C       1.742992     -5.195214      0.269959
  O       1.919851     -6.205220     -0.426294
  C       0.723561     -5.202426      1.364441
  C       0.892734     -4.456366      2.548490
  C      -0.047456     -4.551418      3.580775
  C      -1.174549     -5.370394      3.431563
  C      -1.353053     -6.112076      2.253103
  C      -0.403455     -6.039709      1.232119
  H       1.432196      1.515718     -1.208748
  H       1.271637     -0.094380     -1.963147
  H       2.868345      0.697653     -1.877613
  H       3.010312     -0.715402      2.211640
  H       0.995374     -2.550070      0.559749
  H       4.271814     -5.104586     -0.630374
  H       5.645434     -3.081163     -1.153262
  H       4.682965     -0.811410     -0.854484
  H       1.774741     -3.824986      2.676191
  H       0.100190     -3.984707      4.503058
  H      -1.913784     -5.433697      4.233896
  H      -2.233570     -6.748101      2.134874
  H      -0.527262     -6.620659      0.315290
33
Coordinates from ORCA-job Dexketoprofen\Dexketoprofen_PBE_6-311+G\Dexketoprofen_PBE_6-311+G.orcainp E -843.051771029773
  H       1.189902     -0.257114      0.538518
  C       2.159079     -0.138328      0.018549
  C       1.910156      0.535289     -1.338029
  C       2.992611      0.754084      0.947066
  O       3.324685      0.222974      2.153954
  O       3.341337      1.893497      0.691179
  C       2.770049     -1.528851     -0.124043
  C       2.020932     -2.670935      0.196978
  C       2.555871     -3.961570      0.016000
  C       3.862690     -4.102650     -0.487832
  C       4.624602     -2.969817     -0.783817
  C       4.081398     -1.690920     -0.609047
  C       1.745599     -5.195884      0.270968
  O       1.923959     -6.206403     -0.424096
  C       0.724470     -5.202741      1.363899
  C       0.892209     -4.457420      2.548580
  C      -0.050001     -4.551902      3.579083
  C      -1.177730     -5.369517      3.427489
  C      -1.354749     -6.110574      2.248432
  C      -0.403153     -6.038798      1.229264
  H       1.422410      1.511099     -1.203977
  H       1.256954     -0.101610     -1.951837
  H       2.853807      0.691362     -1.881671
  H       3.006398     -0.700742      2.221806
  H       0.997825     -2.551150      0.562749
  H       4.274111     -5.104193     -0.630899
  H       5.646311     -3.080103     -1.154504
  H       4.683426     -0.810811     -0.854205
  H       1.774585     -3.826944      2.678225
  H       0.096575     -3.985642      4.501809
  H      -1.918541     -5.432236      4.228395
  H      -2.235668     -6.745650      2.128200
  H      -0.525941     -6.619372      0.312054
33
Coordinates from ORCA-job Dexketoprofen\Dexketoprofen_PBE_6-311+G\Dexketoprofen_PBE_6-311+G.orcainp E -843.051771629009
  H       1.191514     -0.258139      0.543194
  C       2.159039     -0.139079      0.020251
  C       1.905449      0.533252     -1.336177
  C       2.995163      0.754346      0.945486
  O       3.330173      0.224548      2.152132
  O       3.344247      1.893013      0.686851
  C       2.770693     -1.529198     -0.123011
  C       2.022331     -2.671726      0.198377
  C       2.557587     -3.962131      0.016906
  C       3.864210     -4.102638     -0.487635
  C       4.625287     -2.969471     -0.784241
  C       4.081666     -1.690795     -0.609113
  C       1.747659     -5.196587      0.272193
  O       1.927165     -6.207752     -0.421579
  C       0.725267     -5.202756      1.363976
  C       0.892391     -4.457793      2.548944
  C      -0.051142     -4.551492      3.578315
  C      -1.179583     -5.367824      3.425242
  C      -1.355959     -6.108543      2.245882
  C      -0.403024     -6.037656      1.227902
  H       1.418109      1.509135     -1.201235
  H       1.250125     -0.104528     -1.946779
  H       2.847263      0.688444     -1.883203
  H       3.009216     -0.698051      2.222856
  H       0.999310     -2.552310      0.564485
  H       4.275884     -5.104047     -0.630948
  H       5.646742     -3.079172     -1.155808
  H       4.683131     -0.810492     -0.854936
  H       1.775274     -3.828239      2.679567
  H       0.095019     -3.985489      4.501262
  H      -1.921442     -5.429783      4.225227
  H      -2.237404     -6.742645      2.124416
  H      -0.525187     -6.617971      0.310440
