30
Coordinates from ORCA-job Diclofenac\Diclofenac_TPSS_STO-3G\Diclofenac_TPSS_STO-3G.orcainp E -1646.596757630286
  O       3.205320      0.772220     -3.481650
  C       3.019920     -0.423630     -2.872600
  O       2.604390     -1.407650     -3.475150
  C       3.320480     -0.407060     -1.391560
  C       4.773730     -0.128810     -1.082440
  C       5.669430     -1.213420     -1.106510
  C       7.032330     -1.021230     -0.890210
  C       7.514530      0.252740     -0.623930
  C       6.634980      1.334310     -0.584780
  C       5.265760      1.173910     -0.860410
  N       4.372990      2.291240     -0.867070
  C       4.785160      3.665540     -0.982660
  C       5.631810      4.129340     -2.012640
  Cl      6.084050      3.138420     -3.359060
  C       6.114230      5.444790     -2.012140
  C       5.706520      6.346220     -1.032240
  C       4.791760      5.941540     -0.063850
  C       4.335910      4.617880     -0.041360
  Cl      3.210470      4.170110      1.195600
  H       3.589430      1.448890     -2.883090
  H       3.044050     -1.389420     -0.980930
  H       2.647280      0.304940     -0.903990
  H       5.309890     -2.220540     -1.316240
  H       7.715650     -1.865180     -0.932480
  H       8.576730      0.411960     -0.457710
  H       7.049620      2.313470     -0.361060
  H       3.794580      2.213950     -0.021130
  H       6.806030      5.773050     -2.785740
  H       6.084520      7.366220     -1.038980
  H       4.444790      6.659400      0.676500
30
Coordinates from ORCA-job Diclofenac\Diclofenac_TPSS_STO-3G\Diclofenac_TPSS_STO-3G.orcainp E -1646.628523076423
  O       3.162815      0.832764     -3.532478
  C       2.971158     -0.400004     -2.907532
  O       2.533972     -1.388604     -3.548860
  C       3.306577     -0.415993     -1.374829
  C       4.789421     -0.153825     -1.074918
  C       5.694677     -1.243385     -1.106915
  C       7.073297     -1.051356     -0.892719
  C       7.564382      0.239706     -0.621164
  C       6.677326      1.331070     -0.575259
  C       5.293676      1.159478     -0.843019
  N       4.355829      2.286463     -0.847637
  C       4.785408      3.661708     -0.964534
  C       5.653754      4.118620     -2.003118
  Cl      6.130149      3.050605     -3.347164
  C       6.128315      5.449834     -2.022659
  C       5.696388      6.373364     -1.050589
  C       4.766900      5.974931     -0.069950
  C       4.318034      4.637632     -0.029676
  Cl      3.152781      4.162182      1.232682
  H       3.566809      1.500643     -2.865915
  H       3.025221     -1.408058     -0.973247
  H       2.650983      0.315241     -0.861968
  H       5.321860     -2.257406     -1.317870
  H       7.762837     -1.907628     -0.939067
  H       8.639746      0.401703     -0.453290
  H       7.083970      2.328260     -0.350045
  H       3.729194      2.213510      0.003069
  H       6.831305      5.768783     -2.807077
  H       6.069086      7.407977     -1.071323
  H       4.400469      6.704986      0.667562
30
Coordinates from ORCA-job Diclofenac\Diclofenac_TPSS_STO-3G\Diclofenac_TPSS_STO-3G.orcainp E -1646.635966908018
  O       3.133798      0.938279     -3.517328
  C       2.951076     -0.334340     -2.921875
  O       2.517035     -1.297085     -3.613513
  C       3.305960     -0.414196     -1.369756
  C       4.802602     -0.170876     -1.079290
  C       5.708817     -1.263176     -1.106412
  C       7.090670     -1.075859     -0.878210
  C       7.587645      0.220085     -0.602898
  C       6.704214      1.320193     -0.566543
  C       5.318889      1.141782     -0.834712
  N       4.359231      2.270667     -0.853077
  C       4.816822      3.640399     -0.951768
  C       5.683063      4.109775     -1.996023
  Cl      6.184815      2.997164     -3.329206
  C       6.119269      5.455407     -2.046956
  C       5.660378      6.386088     -1.085800
  C       4.746212      5.978951     -0.086005
  C       4.336464      4.628398     -0.026217
  Cl      3.176235      4.111078      1.262649
  H       3.512245      1.547590     -2.769720
  H       3.021820     -1.421495     -1.005934
  H       2.671884      0.320109     -0.831210
  H       5.324208     -2.276167     -1.312441
  H       7.776701     -1.938253     -0.912403
  H       8.663017      0.377612     -0.417309
  H       7.099308      2.324511     -0.342011
  H       3.695447      2.202331     -0.028441
  H       6.806570      5.775522     -2.847836
  H       6.001416      7.433085     -1.127749
  H       4.360528      6.705618      0.648486
30
Coordinates from ORCA-job Diclofenac\Diclofenac_TPSS_STO-3G\Diclofenac_TPSS_STO-3G.orcainp E -1646.640147440743
  O       3.071293      1.081355     -3.424133
  C       2.937681     -0.248577     -2.917230
  O       2.533856     -1.170066     -3.679611
  C       3.314678     -0.430635     -1.367647
  C       4.814915     -0.192198     -1.082613
  C       5.723294     -1.283086     -1.096656
  C       7.102497     -1.094734     -0.850821
  C       7.597719      0.203015     -0.576394
  C       6.717285      1.307058     -0.561049
  C       5.335998      1.120995     -0.838107
  N       4.369679      2.252076     -0.895749
  C       4.849087      3.617786     -0.969998
  C       5.713021      4.108397     -2.008845
  Cl      6.252138      2.985066     -3.333663
  C       6.116086      5.463013     -2.072206
  C       5.631200      6.388633     -1.117480
  C       4.730643      5.965829     -0.110499
  C       4.357128      4.605912     -0.048542
  Cl      3.206018      4.049187      1.250056
  H       3.402662      1.624085     -2.599366
  H       3.044440     -1.463454     -1.072660
  H       2.687785      0.272079     -0.780711
  H       5.334428     -2.296624     -1.295511
  H       7.787628     -1.959125     -0.866875
  H       8.670415      0.359438     -0.371062
  H       7.100761      2.317769     -0.343390
  H       3.669945      2.192451     -0.097270
  H       6.792840      5.790825     -2.879575
  H       5.943561      7.445060     -1.167954
  H       4.327659      6.681671      0.626051
30
Coordinates from ORCA-job Diclofenac\Diclofenac_TPSS_STO-3G\Diclofenac_TPSS_STO-3G.orcainp E -1646.642751534754
  O       2.995857      1.241165     -3.301029
  C       2.918605     -0.143445     -2.911791
  O       2.553501     -1.003080     -3.759730
  C       3.325024     -0.469488     -1.379748
  C       4.822484     -0.219336     -1.081176
  C       5.738929     -1.303710     -1.072271
  C       7.113133     -1.106915     -0.806162
  C       7.600585      0.194446     -0.540152
  C       6.719787      1.298581     -0.555483
  C       5.344382      1.098750     -0.841570
  N       4.375808      2.233591     -0.948647
  C       4.880883      3.595682     -0.996704
  C       5.734249      4.109221     -2.033536
  Cl      6.304955      2.980609     -3.353168
  C       6.108351      5.470673     -2.107287
  C       5.608332      6.388269     -1.151967
  C       4.729741      5.949315     -0.131990
  C       4.389911      4.581631     -0.071754
  Cl      3.255992      3.985453      1.240558
  H       3.299126      1.695153     -2.409816
  H       3.084973     -1.533892     -1.193149
  H       2.692615      0.166817     -0.726460
  H       5.351700     -2.319890     -1.262723
  H       7.800724     -1.969796     -0.798615
  H       8.668837      0.355157     -0.313917
  H       7.086611      2.318083     -0.350342
  H       3.649216      2.190386     -0.169782
  H       6.769812      5.805814     -2.924492
  H       5.894114      7.452500     -1.209763
  H       4.318102      6.651455      0.613154
30
Coordinates from ORCA-job Diclofenac\Diclofenac_TPSS_STO-3G\Diclofenac_TPSS_STO-3G.orcainp E -1646.646105853558
  O       3.103275      1.329906     -3.242854
  C       2.951292     -0.061828     -2.909756
  O       2.542833     -0.874064     -3.785793
  C       3.329880     -0.445169     -1.387626
  C       4.827030     -0.227453     -1.079351
  C       5.732250     -1.320752     -1.056572
  C       7.107034     -1.131670     -0.783712
  C       7.602639      0.170252     -0.526596
  C       6.728312      1.280543     -0.554013
  C       5.352197      1.085190     -0.841956
  N       4.376235      2.214343     -0.950911
  C       4.874062      3.578060     -1.004358
  C       5.703091      4.097966     -2.058265
  Cl      6.267072      2.970560     -3.382312
  C       6.058043      5.464446     -2.142166
  C       5.564027      6.378366     -1.179469
  C       4.711322      5.930400     -0.140764
  C       4.389259      4.558509     -0.070430
  Cl      3.289065      3.949518      1.264391
  H       3.461966      1.726773     -2.338375
  H       3.065533     -1.508902     -1.231832
  H       2.705455      0.185586     -0.720464
  H       5.337921     -2.335233     -1.242517
  H       7.788504     -1.999509     -0.764950
  H       8.670735      0.325642     -0.295022
  H       7.100550      2.298889     -0.351637
  H       3.656286      2.170623     -0.165151
  H       6.699534      5.806449     -2.972631
  H       5.834614      7.446209     -1.245533
  H       4.306325      6.629550      0.611117
30
Coordinates from ORCA-job Diclofenac\Diclofenac_TPSS_STO-3G\Diclofenac_TPSS_STO-3G.orcainp E -1646.648044285575
  O       3.196794      1.340955     -3.227975
  C       2.967679     -0.024363     -2.901161
  O       2.491120     -0.822102     -3.756294
  C       3.333058     -0.412183     -1.386978
  C       4.829094     -0.230245     -1.085553
  C       5.720083     -1.332320     -1.030212
  C       7.094649     -1.143527     -0.759101
  C       7.597167      0.160786     -0.532072
  C       6.727804      1.273684     -0.581000
  C       5.353184      1.077655     -0.865729
  N       4.367411      2.198636     -0.981460
  C       4.857231      3.572762     -1.024158
  C       5.672012      4.098623     -2.080745
  Cl      6.245295      2.991804     -3.403184
  C       6.021507      5.467417     -2.151455
  C       5.535984      6.368408     -1.174521
  C       4.700156      5.905635     -0.130487
  C       4.381242      4.532150     -0.069352
  Cl      3.303938      3.915020      1.264753
  H       3.677021      1.740656     -2.364204
  H       3.037698     -1.466085     -1.222847
  H       2.722577      0.227167     -0.715824
  H       5.322706     -2.348195     -1.194634
  H       7.771519     -2.013094     -0.719173
  H       8.665054      0.315191     -0.304534
  H       7.109576      2.291144     -0.395150
  H       3.671505      2.150357     -0.175437
  H       6.655295      5.822810     -2.981063
  H       5.802301      7.436950     -1.232306
  H       4.305680      6.597503      0.632345
30
Coordinates from ORCA-job Diclofenac\Diclofenac_TPSS_STO-3G\Diclofenac_TPSS_STO-3G.orcainp E -1646.649032036122
  O       3.064111      1.364190     -3.151936
  C       2.944745     -0.016944     -2.889058
  O       2.504952     -0.816081     -3.762853
  C       3.342728     -0.441762     -1.394141
  C       4.836278     -0.236779     -1.093680
  C       5.737439     -1.329850     -1.027597
  C       7.107740     -1.126794     -0.747969
  C       7.597291      0.180741     -0.521856
  C       6.719208      1.285431     -0.583815
  C       5.350956      1.076169     -0.881832
  N       4.363203      2.194905     -1.032240
  C       4.859001      3.575212     -1.056562
  C       5.694380      4.099644     -2.093872
  Cl      6.285537      3.004628     -3.410137
  C       6.060090      5.465449     -2.142920
  C       5.569294      6.360267     -1.164217
  C       4.713053      5.895700     -0.138690
  C       4.377488      4.525064     -0.098054
  Cl      3.274797      3.911058      1.208955
  H       3.494426      1.788644     -2.264228
  H       3.082705     -1.509242     -1.261699
  H       2.716122      0.147569     -0.692930
  H       5.352339     -2.350505     -1.188597
  H       7.792144     -1.989544     -0.699691
  H       8.662270      0.344971     -0.290025
  H       7.093567      2.306371     -0.404327
  H       3.664117      2.151164     -0.228302
  H       6.712796      5.823305     -2.956163
  H       5.848196      7.426062     -1.206087
  H       4.315365      6.584157      0.625014
30
Coordinates from ORCA-job Diclofenac\Diclofenac_TPSS_STO-3G\Diclofenac_TPSS_STO-3G.orcainp E -1646.649839504225
  O       3.047862      1.314690     -3.218954
  C       2.922289     -0.056674     -2.925819
  O       2.501932     -0.875027     -3.791585
  C       3.334923     -0.484232     -1.423291
  C       4.819747     -0.239035     -1.094591
  C       5.733032     -1.319683     -0.989691
  C       7.096997     -1.098998     -0.695502
  C       7.574169      0.213882     -0.489046
  C       6.690618      1.311564     -0.583990
  C       5.329371      1.085308     -0.893593
  N       4.339727      2.209686     -1.061389
  C       4.861192      3.588277     -1.071103
  C       5.661522      4.127323     -2.126866
  Cl      6.183266      3.054384     -3.492332
  C       6.044582      5.488787     -2.160848
  C       5.606927      6.365533     -1.141631
  C       4.788371      5.889240     -0.091107
  C       4.435370      4.522763     -0.073257
  Cl      3.377165      3.886549      1.264206
  H       3.505453      1.737645     -2.342299
  H       3.108405     -1.561519     -1.311014
  H       2.686487      0.079632     -0.720633
  H       5.359084     -2.346487     -1.139201
  H       7.787568     -1.955254     -0.621009
  H       8.634819      0.389573     -0.244735
  H       7.050111      2.339195     -0.414138
  H       3.657957      2.179802     -0.238169
  H       6.667376      5.855429     -2.993599
  H       5.897494      7.429113     -1.171223
  H       4.432522      6.561731      0.706898
30
Coordinates from ORCA-job Diclofenac\Diclofenac_TPSS_STO-3G\Diclofenac_TPSS_STO-3G.orcainp E -1646.650097299327
  O       3.051526      1.354606     -3.194841
  C       2.925192     -0.019754     -2.925273
  O       2.473936     -0.820666     -3.793630
  C       3.342241     -0.483532     -1.431080
  C       4.824572     -0.241566     -1.094372
  C       5.741906     -1.318841     -0.986298
  C       7.104869     -1.092000     -0.688638
  C       7.576913      0.223673     -0.483018
  C       6.687607      1.317984     -0.579283
  C       5.328249      1.082546     -0.889086
  N       4.323692      2.197990     -1.062852
  C       4.843205      3.579618     -1.075919
  C       5.645630      4.109914     -2.133732
  Cl      6.170362      3.021770     -3.486909
  C       6.038964      5.468994     -2.169461
  C       5.608626      6.349009     -1.149150
  C       4.788988      5.879487     -0.095434
  C       4.425820      4.515089     -0.075894
  Cl      3.365116      3.884623      1.263271
  H       3.542130      1.760876     -2.326457
  H       3.117852     -1.563773     -1.344807
  H       2.693353      0.062861     -0.714081
  H       5.372848     -2.347229     -1.138847
  H       7.799099     -1.945524     -0.612997
  H       8.637404      0.404368     -0.240589
  H       7.041867      2.348055     -0.411800
  H       3.651016      2.168776     -0.230360
  H       6.666124      5.830053     -3.001673
  H       5.907367      7.410555     -1.179410
  H       4.439865      6.555237      0.703111
30
Coordinates from ORCA-job Diclofenac\Diclofenac_TPSS_STO-3G\Diclofenac_TPSS_STO-3G.orcainp E -1646.650096607078
  O       3.041341      1.345632     -3.206849
  C       2.931187     -0.022847     -2.933961
  O       2.483518     -0.837545     -3.792555
  C       3.348726     -0.475604     -1.439356
  C       4.828949     -0.235432     -1.100530
  C       5.745029     -1.313559     -0.988462
  C       7.107175     -1.087074     -0.685780
  C       7.578380      0.228702     -0.477304
  C       6.686853      1.321895     -0.573586
  C       5.328953      1.085943     -0.889569
  N       4.317587      2.197082     -1.056787
  C       4.830423      3.581930     -1.075403
  C       5.631316      4.102844     -2.137820
  Cl      6.141938      3.011721     -3.489156
  C       6.035896      5.459289     -2.171575
  C       5.617684      6.340122     -1.147032
  C       4.797376      5.875766     -0.091528
  C       4.420866      4.514368     -0.071190
  Cl      3.362741      3.893128      1.268371
  H       3.514702      1.778942     -2.340084
  H       3.125357     -1.555596     -1.346957
  H       2.696868      0.070182     -0.723959
  H       5.378652     -2.342250     -1.144071
  H       7.801195     -1.940467     -0.609014
  H       8.638424      0.410034     -0.234445
  H       7.042687      2.350681     -0.402024
  H       3.653678      2.163493     -0.217790
  H       6.664401      5.818223     -3.003530
  H       5.926641      7.398521     -1.175491
  H       4.457798      6.555075      0.707926
30
Coordinates from ORCA-job Diclofenac\Diclofenac_TPSS_STO-3G\Diclofenac_TPSS_STO-3G.orcainp E -1646.650203772747
  O       3.028861      1.339965     -3.197252
  C       2.910407     -0.028735     -2.926367
  O       2.464254     -0.841687     -3.787479
  C       3.346628     -0.488756     -1.437636
  C       4.827405     -0.236375     -1.106052
  C       5.747583     -1.311009     -0.990851
  C       7.108179     -1.080553     -0.685010
  C       7.575344      0.236438     -0.476099
  C       6.681836      1.327454     -0.577469
  C       5.325903      1.088037     -0.898549
  N       4.315757      2.201565     -1.071728
  C       4.834991      3.584951     -1.081567
  C       5.642733      4.108332     -2.138227
  Cl      6.155194      3.019525     -3.492542
  C       6.048779      5.464363     -2.166744
  C       5.626816      6.342439     -1.141303
  C       4.801547      5.876342     -0.090499
  C       4.423207      4.515457     -0.076364
  Cl      3.358677      3.888948      1.257660
  H       3.504340      1.759266     -2.324420
  H       3.135094     -1.571660     -1.353059
  H       2.695522      0.046794     -0.714114
  H       5.383811     -2.341171     -1.143191
  H       7.803784     -1.932310     -0.603845
  H       8.634037      0.420705     -0.229372
  H       7.034270      2.357789     -0.407708
  H       3.644568      2.167958     -0.238635
  H       6.680359      5.825071     -2.995665
  H       5.936984      7.400690     -1.165317
  H       4.459471      6.553366      0.709894
30
Coordinates from ORCA-job Diclofenac\Diclofenac_TPSS_STO-3G\Diclofenac_TPSS_STO-3G.orcainp E -1646.650217374037
  O       3.034984      1.352216     -3.197279
  C       2.916579     -0.019505     -2.932972
  O       2.455213     -0.824266     -3.793565
  C       3.349103     -0.490015     -1.444864
  C       4.828411     -0.237922     -1.104764
  C       5.748946     -1.312547     -0.991440
  C       7.108485     -1.082971     -0.680693
  C       7.574863      0.233399     -0.465624
  C       6.681858      1.324781     -0.566186
  C       5.326799      1.085999     -0.891007
  N       4.316905      2.200017     -1.064166
  C       4.837059      3.582860     -1.078133
  C       5.636758      4.106491     -2.141344
  Cl      6.139109      3.016075     -3.499354
  C       6.039069      5.463322     -2.175724
  C       5.621640      6.342448     -1.149261
  C       4.804840      5.876817     -0.091797
  C       4.430118      4.515070     -0.072272
  Cl      3.375856      3.887361      1.270625
  H       3.515939      1.764273     -2.324343
  H       3.138526     -1.573734     -1.369824
  H       2.695025      0.040077     -0.720173
  H       5.385825     -2.342151     -1.149476
  H       7.803952     -1.935033     -0.600675
  H       8.632645      0.416914     -0.214138
  H       7.033273      2.354716     -0.391954
  H       3.646389      2.168107     -0.230431
  H       6.663064      5.824105     -3.010410
  H       5.928594      7.401620     -1.177839
  H       4.466515      6.554673      0.709574
30
Coordinates from ORCA-job Diclofenac\Diclofenac_TPSS_STO-3G\Diclofenac_TPSS_STO-3G.orcainp E -1646.650224919336
  O       3.035631      1.352340     -3.196606
  C       2.912541     -0.018218     -2.930698
  O       2.452860     -0.823964     -3.791305
  C       3.349372     -0.489804     -1.444403
  C       4.828710     -0.236977     -1.105893
  C       5.750078     -1.311175     -0.994545
  C       7.109733     -1.081069     -0.684655
  C       7.575330      0.235483     -0.468363
  C       6.681129      1.326129     -0.566637
  C       5.325975      1.086644     -0.890571
  N       4.314854      2.199683     -1.061318
  C       4.834439      3.582578     -1.076099
  C       5.637598      4.102872     -2.138353
  Cl      6.145346      3.008009     -3.490285
  C       6.041919      5.459060     -2.173752
  C       5.622755      6.340397     -1.149887
  C       4.802733      5.877719     -0.093731
  C       4.426113      4.516394     -0.072213
  Cl      3.367491      3.893129      1.268734
  H       3.515981      1.765997     -2.323919
  H       3.140228     -1.573892     -1.370452
  H       2.695798      0.038318     -0.717752
  H       5.387895     -2.340914     -1.153797
  H       7.805865     -1.932750     -0.606484
  H       8.633193      0.419633     -0.217746
  H       7.032387      2.356029     -0.391750
  H       3.646229      2.166858     -0.226295
  H       6.669342      5.817816     -3.006723
  H       5.931382      7.399030     -1.179304
  H       4.463433      6.557843      0.705293
30
Coordinates from ORCA-job Diclofenac\Diclofenac_TPSS_STO-3G\Diclofenac_TPSS_STO-3G.orcainp E -1646.650226872276
  O       3.032594      1.350317     -3.196117
  C       2.909524     -0.019676     -2.930122
  O       2.445770     -0.825520     -3.788480
  C       3.350086     -0.490972     -1.445110
  C       4.829341     -0.236584     -1.107885
  C       5.750949     -1.310539     -0.995397
  C       7.110225     -1.080111     -0.684221
  C       7.575157      0.236566     -0.467182
  C       6.680588      1.326817     -0.566257
  C       5.325927      1.087142     -0.892335
  N       4.314921      2.200328     -1.063234
  C       4.834518      3.583279     -1.077197
  C       5.638661      4.103487     -2.138837
  Cl      6.145953      3.009577     -3.491357
  C       6.043719      5.459472     -2.173050
  C       5.624384      6.340360     -1.148853
  C       4.803362      5.877538     -0.093629
  C       4.425678      4.516437     -0.073051
  Cl      3.366574      3.893116      1.267007
  H       3.513666      1.764320     -2.323723
  H       3.142735     -1.575436     -1.371462
  H       2.696489      0.035475     -0.717162
  H       5.389345     -2.340474     -1.154583
  H       7.806461     -1.931621     -0.605365
  H       8.632644      0.421098     -0.215358
  H       7.031623      2.356683     -0.390698
  H       3.645722      2.167015     -0.228731
  H       6.671883      5.818707     -3.005250
  H       5.933685      7.398801     -1.177353
  H       4.464154      6.557599      0.705481
30
Coordinates from ORCA-job Diclofenac\Diclofenac_TPSS_STO-3G\Diclofenac_TPSS_STO-3G.orcainp E -1646.650227504523
  O       3.033507      1.352769     -3.195287
  C       2.908909     -0.017481     -2.930636
  O       2.443433     -0.821649     -3.789602
  C       3.350830     -0.491770     -1.446840
  C       4.829727     -0.236824     -1.108219
  C       5.751540     -1.310688     -0.996001
  C       7.110497     -1.080363     -0.683524
  C       7.575019      0.236204     -0.464863
  C       6.680367      1.326343     -0.563760
  C       5.325972      1.086781     -0.891142
  N       4.315175      2.200124     -1.061763
  C       4.834833      3.582994     -1.076728
  C       5.637817      4.102986     -2.139460
  Cl      6.143266      3.008865     -3.492565
  C       6.042444      5.459019     -2.174713
  C       5.623846      6.340275     -1.150489
  C       4.803992      5.877746     -0.094295
  C       4.426645      4.516551     -0.072697
  Cl      3.369177      3.893505      1.268817
  H       3.513845      1.765575     -2.321899
  H       3.144757     -1.576656     -1.375978
  H       2.696529      0.032141     -0.717674
  H       5.390283     -2.340540     -1.156493
  H       7.806779     -1.931857     -0.604969
  H       8.632218      0.420735     -0.211846
  H       7.031105      2.356096     -0.386969
  H       3.646098      2.167123     -0.227154
  H       6.669541      5.818221     -3.007730
  H       5.932762      7.398809     -1.179816
  H       4.465429      6.558164      0.704787
