33
Coordinates from ORCA-job Dexketoprofen\Dexketoprofen_PBE_def2-TZVP\Dexketoprofen_PBE_def2-TZVP.orcainp E -843.133613741756
  H       2.196820     -0.911540      0.640440
  C       2.082740     -0.072300     -0.061510
  C       0.617810      0.370390     -0.013130
  C       2.957330      1.046610      0.514000
  O       4.280940      0.777800      0.528310
  O       2.522150      2.086910      0.989660
  C       2.463940     -0.562300     -1.459860
  C       2.327060     -1.928420     -1.785840
  C       2.675940     -2.406380     -3.069240
  C       3.085580     -1.510930     -4.050730
  C       3.203790     -0.155250     -3.747610
  C       2.905090      0.311300     -2.462550
  C       2.634550     -3.853770     -3.422270
  O       2.317120     -4.186580     -4.561160
  C       3.032820     -4.899460     -2.439830
  C       3.931400     -4.623860     -1.400020
  C       4.303560     -5.631040     -0.510100
  C       3.799730     -6.921430     -0.668080
  C       2.923490     -7.206720     -1.714550
  C       2.540880     -6.199460     -2.602470
  H       0.348650      0.710150      0.996290
  H      -0.063730     -0.443910     -0.277690
  H       0.430420      1.208850     -0.696040
  H       4.525170     -0.075950      0.123360
  H       1.942960     -2.622530     -1.044340
  H       3.322250     -1.867050     -5.056060
  H       3.532160      0.538300     -4.521120
  H       3.011820      1.379290     -2.267150
  H       4.369910     -3.639970     -1.277730
  H       4.999000     -5.413070      0.296480
  H       4.103960     -7.707870      0.015690
  H       2.543310     -8.217440     -1.843150
  H       1.867200     -6.432720     -3.423640
33
Coordinates from ORCA-job Dexketoprofen\Dexketoprofen_PBE_def2-TZVP\Dexketoprofen_PBE_def2-TZVP.orcainp E -843.136932447634
  H       2.226346     -0.940580      0.625516
  C       2.079320     -0.095777     -0.070408
  C       0.595379      0.296941     -0.028540
  C       2.959941      1.026877      0.490685
  O       4.289123      0.792524      0.472672
  O       2.542906      2.077908      0.939876
  C       2.490812     -0.562453     -1.457410
  C       2.441418     -1.929244     -1.771937
  C       2.752221     -2.385177     -3.066168
  C       3.107618     -1.462028     -4.056719
  C       3.176430     -0.103624     -3.748827
  C       2.872099      0.341236     -2.459063
  C       2.698524     -3.834113     -3.434962
  O       2.319926     -4.164349     -4.563685
  C       3.055264     -4.882362     -2.431156
  C       3.961198     -4.631419     -1.386625
  C       4.314334     -5.652462     -0.501567
  C       3.755223     -6.925244     -0.643747
  C       2.853637     -7.181625     -1.681670
  C       2.510842     -6.168089     -2.577030
  H       0.305519      0.613025      0.982713
  H      -0.046025     -0.547202     -0.314934
  H       0.387387      1.134017     -0.709911
  H       4.514714     -0.070783      0.072008
  H       2.124605     -2.645505     -1.011519
  H       3.338094     -1.807344     -5.065676
  H       3.465025      0.611256     -4.521038
  H       2.929308      1.412722     -2.249886
  H       4.425725     -3.651951     -1.270956
  H       5.026949     -5.454505      0.300713
  H       4.027489     -7.720538      0.052558
  H       2.420122     -8.176820     -1.794181
  H       1.814347     -6.373665     -3.390766
33
Coordinates from ORCA-job Dexketoprofen\Dexketoprofen_PBE_def2-TZVP\Dexketoprofen_PBE_def2-TZVP.orcainp E -843.137273490855
  H       2.136264     -0.925747      0.612558
  C       2.030980     -0.071844     -0.084249
  C       0.561900      0.375399     -0.084022
  C       2.965408      1.001318      0.481017
  O       4.278100      0.682318      0.539573
  O       2.606875      2.061752      0.948818
  C       2.476743     -0.550482     -1.451781
  C       2.454246     -1.916856     -1.745995
  C       2.757086     -2.383819     -3.033038
  C       3.111357     -1.461199     -4.035031
  C       3.175164     -0.100326     -3.738449
  C       2.855299      0.352834     -2.456114
  C       2.645529     -3.833508     -3.400313
  O       2.306328     -4.151342     -4.549335
  C       3.043372     -4.884992     -2.410910
  C       4.001353     -4.649446     -1.406640
  C       4.395924     -5.682277     -0.551922
  C       3.818252     -6.951014     -0.672381
  C       2.859472     -7.191981     -1.665865
  C       2.485779     -6.170994     -2.537398
  H       0.252169      0.694187      0.920504
  H      -0.086333     -0.454289     -0.400980
  H       0.408806      1.218425     -0.773706
  H       4.439315     -0.203613      0.152263
  H       2.153901     -2.626940     -0.969875
  H       3.346038     -1.819527     -5.037807
  H       3.470020      0.612892     -4.510874
  H       2.899140      1.425525     -2.245278
  H       4.469916     -3.666863     -1.309709
  H       5.153303     -5.494902      0.213488
  H       4.115851     -7.754455      0.008056
  H       2.404538     -8.181433     -1.759313
  H       1.743725     -6.357149     -3.316931
33
Coordinates from ORCA-job Dexketoprofen\Dexketoprofen_PBE_def2-TZVP\Dexketoprofen_PBE_def2-TZVP.orcainp E -843.137971181089
  H       2.120725     -0.944656      0.609778
  C       2.022832     -0.085790     -0.080303
  C       0.561275      0.376771     -0.078938
  C       2.959078      0.978824      0.494307
  O       4.276202      0.662514      0.529013
  O       2.606534      2.058098      0.928381
  C       2.468154     -0.556012     -1.455193
  C       2.474486     -1.922819     -1.754409
  C       2.791544     -2.380607     -3.042283
  C       3.116795     -1.447731     -4.043355
  C       3.146855     -0.086742     -3.744619
  C       2.818110      0.357645     -2.460841
  C       2.710293     -3.829842     -3.413157
  O       2.336257     -4.152299     -4.548007
  C       3.077101     -4.879418     -2.412529
  C       4.045067     -4.663414     -1.414639
  C       4.408823     -5.698060     -0.549621
  C       3.794880     -6.950066     -0.656590
  C       2.827568     -7.172665     -1.645351
  C       2.481896     -6.149576     -2.524983
  H       0.251899      0.685930      0.928518
  H      -0.089790     -0.444010     -0.408620
  H       0.419980      1.227856     -0.760255
  H       4.428852     -0.224954      0.141702
  H       2.199117     -2.640299     -0.977913
  H       3.358420     -1.800442     -5.046895
  H       3.423742      0.634675     -4.515436
  H       2.834129      1.429817     -2.247168
  H       4.540815     -3.694966     -1.330373
  H       5.173575     -5.526021      0.210253
  H       4.071171     -7.754345      0.028880
  H       2.344607     -8.148374     -1.728578
  H       1.734828     -6.319374     -3.302418
33
Coordinates from ORCA-job Dexketoprofen\Dexketoprofen_PBE_def2-TZVP\Dexketoprofen_PBE_def2-TZVP.orcainp E -843.138071823457
  H       2.124354     -0.969477      0.600720
  C       2.032411     -0.103440     -0.079877
  C       0.579278      0.381897     -0.062338
  C       2.983649      0.947581      0.494864
  O       4.297772      0.611314      0.524833
  O       2.643184      2.025604      0.945031
  C       2.460765     -0.566867     -1.465334
  C       2.488855     -1.933685     -1.768950
  C       2.801429     -2.381925     -3.062234
  C       3.102420     -1.441763     -4.062304
  C       3.107557     -0.081441     -3.761117
  C       2.780857      0.354929     -2.473678
  C       2.745835     -3.830757     -3.433189
  O       2.394079     -4.159451     -4.571727
  C       3.091178     -4.872996     -2.420372
  C       4.025187     -4.642775     -1.395057
  C       4.369917     -5.669143     -0.513347
  C       3.770021     -6.926331     -0.631661
  C       2.834107     -7.162371     -1.646607
  C       2.506786     -6.146960     -2.541765
  H       0.281099      0.680141      0.951414
  H      -0.084560     -0.424534     -0.400712
  H       0.447690      1.244525     -0.730270
  H       4.436150     -0.273133      0.126281
  H       2.238986     -2.657650     -0.990543
  H       3.342107     -1.789364     -5.068309
  H       3.363708      0.646855     -4.532399
  H       2.776449      1.426252     -2.256991
  H       4.506014     -3.668117     -1.300900
  H       5.109018     -5.486352      0.268370
  H       4.032208     -7.723996      0.065671
  H       2.361872     -8.142006     -1.738220
  H       1.785438     -6.324915     -3.340923
33
Coordinates from ORCA-job Dexketoprofen\Dexketoprofen_PBE_def2-TZVP\Dexketoprofen_PBE_def2-TZVP.orcainp E -843.138159742166
  H       2.073400     -0.979215      0.594152
  C       2.014850     -0.105026     -0.078771
  C       0.579993      0.431658     -0.068648
  C       2.995309      0.912109      0.508288
  O       4.300873      0.537926      0.533548
  O       2.687567      2.003800      0.950087
  C       2.440134     -0.570793     -1.466180
  C       2.483538     -1.938088     -1.768347
  C       2.802554     -2.384286     -3.061733
  C       3.094831     -1.441668     -4.061202
  C       3.083356     -0.081388     -3.762022
  C       2.750014      0.353386     -2.475700
  C       2.758534     -3.833157     -3.432415
  O       2.436871     -4.163030     -4.578709
  C       3.103522     -4.873772     -2.419029
  C       4.040128     -4.643997     -1.396408
  C       4.383835     -5.669621     -0.513889
  C       3.780944     -6.925259     -0.628814
  C       2.842873     -7.161335     -1.641521
  C       2.516642     -6.146816     -2.537832
  H       0.281680      0.724312      0.946356
  H      -0.106087     -0.346962     -0.427360
  H       0.486952      1.307642     -0.725110
  H       4.410213     -0.346952      0.127421
  H       2.238358     -2.662425     -0.989331
  H       3.338911     -1.789686     -5.066077
  H       3.331699      0.649432     -4.533478
  H       2.730460      1.424336     -2.258580
  H       4.521928     -3.669523     -1.307011
  H       5.125145     -5.487267      0.265711
  H       4.043065     -7.722348      0.068852
  H       2.368841     -8.140179     -1.730735
  H       1.794891     -6.322160     -3.337153
33
Coordinates from ORCA-job Dexketoprofen\Dexketoprofen_PBE_def2-TZVP\Dexketoprofen_PBE_def2-TZVP.orcainp E -843.138277590625
  H       1.934629     -0.993567      0.565207
  C       1.963960     -0.103302     -0.087352
  C       0.580054      0.554218     -0.101757
  C       3.011056      0.820487      0.538657
  O       4.280116      0.333537      0.595090
  O       2.783580      1.925161      0.995809
  C       2.392613     -0.574442     -1.473501
  C       2.466524     -1.941615     -1.770337
  C       2.803918     -2.385515     -3.061325
  C       3.077732     -1.438822     -4.061505
  C       3.033861     -0.078581     -3.767954
  C       2.687298      0.353535     -2.484534
  C       2.790559     -3.835856     -3.429275
  O       2.490832     -4.173202     -4.579025
  C       3.137273     -4.871687     -2.411809
  C       4.104017     -4.652232     -1.415190
  C       4.450522     -5.677893     -0.534199
  C       3.821254     -6.922129     -0.623670
  C       2.854889     -7.149051     -1.611471
  C       2.526727     -6.135740     -2.508157
  H       0.274096      0.837281      0.913308
  H      -0.154016     -0.153470     -0.509972
  H       0.584175      1.454532     -0.730779
  H       4.319042     -0.548665      0.170330
  H       2.225678     -2.665520     -0.990139
  H       3.333363     -1.788446     -5.062936
  H       3.268067      0.656198     -4.540249
  H       2.638936      1.423506     -2.267292
  H       4.605753     -3.685896     -1.351266
  H       5.215840     -5.504208      0.224121
  H       4.086319     -7.719099      0.073198
  H       2.361634     -8.120009     -1.681528
  H       1.785520     -6.299859     -3.292139
33
Coordinates from ORCA-job Dexketoprofen\Dexketoprofen_PBE_def2-TZVP\Dexketoprofen_PBE_def2-TZVP.orcainp E -843.138358156421
  H       1.915780     -1.001124      0.555030
  C       1.962687     -0.107021     -0.091798
  C       0.588560      0.571598     -0.103841
  C       3.024937      0.792091      0.545433
  O       4.281367      0.277852      0.610142
  O       2.818642      1.899801      1.003430
  C       2.387620     -0.576306     -1.478310
  C       2.452949     -1.942868     -1.777025
  C       2.787125     -2.386542     -3.068370
  C       3.064792     -1.440370     -4.068245
  C       3.029559     -0.079849     -3.772652
  C       2.688658      0.351707     -2.487774
  C       2.777623     -3.837538     -3.434365
  O       2.481979     -4.179273     -4.584693
  C       3.130887     -4.869064     -2.413555
  C       4.084444     -4.632633     -1.407828
  C       4.440947     -5.652375     -0.523578
  C       3.833048     -6.907142     -0.618369
  C       2.878400     -7.149924     -1.613942
  C       2.540826     -6.142397     -2.514123
  H       0.285715      0.852571      0.913026
  H      -0.157879     -0.120260     -0.516689
  H       0.605922      1.477199     -0.725279
  H       4.306001     -0.606229      0.187814
  H       2.209735     -2.667429     -0.997510
  H       3.318262     -1.789293     -5.070438
  H       3.267022      0.654380     -4.544503
  H       2.650861      1.421817     -2.268877
  H       4.569035     -3.657672     -1.338018
  H       5.196175     -5.465742      0.241939
  H       4.104801     -7.699451      0.081651
  H       2.401245     -8.128826     -1.687134
  H       1.808094     -6.320040     -3.303189
33
Coordinates from ORCA-job Dexketoprofen\Dexketoprofen_PBE_def2-TZVP\Dexketoprofen_PBE_def2-TZVP.orcainp E -843.138386753934
  H       1.934568     -1.000254      0.554779
  C       1.972098     -0.107302     -0.095107
  C       0.589740      0.554037     -0.100391
  C       3.028234      0.801186      0.540566
  O       4.283486      0.291959      0.620472
  O       2.815113      1.910663      0.990030
  C       2.395752     -0.574615     -1.480804
  C       2.449626     -1.940922     -1.780370
  C       2.778316     -2.386405     -3.071734
  C       3.063465     -1.442696     -4.072158
  C       3.042372     -0.081403     -3.774824
  C       2.706800      0.351417     -2.489239
  C       2.761621     -3.837532     -3.437365
  O       2.448866     -4.181056     -4.583443
  C       3.119690     -4.868561     -2.416100
  C       4.064218     -4.622381     -1.403748
  C       4.427385     -5.639262     -0.518397
  C       3.834305     -6.901119     -0.619185
  C       2.888183     -7.152701     -1.620769
  C       2.543911     -6.147715     -2.521778
  H       0.291703      0.836914      0.917816
  H      -0.154959     -0.146214     -0.501700
  H       0.588458      1.458651     -0.723953
  H       4.319273     -0.599565      0.215284
  H       2.199548     -2.665582     -1.002606
  H       3.311322     -1.790748     -5.076038
  H       3.285419      0.650354     -4.547209
  H       2.685166      1.422056     -2.270759
  H       4.538342     -3.642768     -1.326489
  H       5.175166     -5.445243      0.252616
  H       4.110436     -7.691356      0.081721
  H       2.422040     -8.136709     -1.697706
  H       1.816156     -6.335480     -3.313053
33
Coordinates from ORCA-job Dexketoprofen\Dexketoprofen_PBE_def2-TZVP\Dexketoprofen_PBE_def2-TZVP.orcainp E -843.138396668027
  H       1.888027     -1.003614      0.543546
  C       1.958142     -0.107469     -0.099038
  C       0.597241      0.595870     -0.109511
  C       3.036554      0.764471      0.550741
  O       4.271554      0.210909      0.649946
  O       2.857410      1.883682      0.991276
  C       2.381102     -0.576459     -1.484650
  C       2.439393     -1.942724     -1.783531
  C       2.771404     -2.387984     -3.074345
  C       3.053512     -1.443949     -4.075091
  C       3.027622     -0.082447     -3.778534
  C       2.690446      0.350052     -2.493355
  C       2.761817     -3.839324     -3.438435
  O       2.452264     -4.186223     -4.584206
  C       3.124921     -4.867097     -2.415653
  C       4.071096     -4.615441     -1.406223
  C       4.440649     -5.629339     -0.520158
  C       3.852218     -6.893629     -0.617287
  C       2.904343     -7.150554     -1.615795
  C       2.553803     -6.148544     -2.517712
  H       0.299060      0.877078      0.909142
  H      -0.164885     -0.077314     -0.524223
  H       0.628038      1.506790     -0.723001
  H       4.280654     -0.684092      0.251233
  H       2.190778     -2.667605     -1.005624
  H       3.302938     -1.792008     -5.078590
  H       3.268508      0.649614     -4.551290
  H       2.665607      1.420586     -2.274871
  H       4.541295     -3.633742     -1.332052
  H       5.189910     -5.431205      0.248323
  H       4.133505     -7.681646      0.083976
  H       2.441933     -8.136515     -1.689711
  H       1.824963     -6.340479     -3.306939
33
Coordinates from ORCA-job Dexketoprofen\Dexketoprofen_PBE_def2-TZVP\Dexketoprofen_PBE_def2-TZVP.orcainp E -843.138404613058
  H       1.900906     -1.001546      0.548218
  C       1.961188     -0.106960     -0.097346
  C       0.594870      0.585440     -0.106207
  C       3.034014      0.777182      0.544834
  O       4.273807      0.234119      0.645129
  O       2.847496      1.898769      0.976717
  C       2.384101     -0.576061     -1.483197
  C       2.444042     -1.942347     -1.781903
  C       2.776130     -2.387576     -3.072721
  C       3.057694     -1.443344     -4.073508
  C       3.029919     -0.081934     -3.777158
  C       2.691365      0.350577     -2.492268
  C       2.763500     -3.838685     -3.437598
  O       2.452875     -4.183614     -4.583469
  C       3.125024     -4.867937     -2.416026
  C       4.071742     -4.619713     -1.406353
  C       4.438303     -5.635139     -0.520866
  C       3.846687     -6.897827     -0.618919
  C       2.898465     -7.151554     -1.617900
  C       2.550770     -6.147949     -2.518999
  H       0.297689      0.868511      0.912185
  H      -0.162646     -0.096072     -0.515801
  H       0.616356      1.493729     -0.723885
  H       4.288755     -0.663725      0.253066
  H       2.197262     -2.667408     -1.003665
  H       3.307715     -1.791181     -5.076936
  H       3.270516      0.650246     -4.549905
  H       2.664030      1.421129     -2.274208
  H       4.544477     -3.639328     -1.331359
  H       5.187913     -5.439452      0.247869
  H       4.125792     -7.687053      0.081787
  H       2.433503     -8.136226     -1.692766
  H       1.821562     -6.337422     -3.308481
33
Coordinates from ORCA-job Dexketoprofen\Dexketoprofen_PBE_def2-TZVP\Dexketoprofen_PBE_def2-TZVP.orcainp E -843.138413744253
  H       1.916641     -0.997884      0.553650
  C       1.965315     -0.105688     -0.095925
  C       0.592541      0.573303     -0.102744
  C       3.031655      0.794226      0.535280
  O       4.273157      0.258608      0.652671
  O       2.839099      1.924127      0.942776
  C       2.388144     -0.575226     -1.481963
  C       2.447897     -1.941565     -1.780632
  C       2.779565     -2.387241     -3.071375
  C       3.061940     -1.443275     -4.072243
  C       3.033996     -0.081879     -3.775975
  C       2.694513      0.351119     -2.491403
  C       2.761824     -3.838198     -3.436868
  O       2.446284     -4.180901     -4.581839
  C       3.123789     -4.869091     -2.417275
  C       4.071973     -4.624084     -1.408278
  C       4.437013     -5.640951     -0.523857
  C       3.842821     -6.902375     -0.622425
  C       2.893460     -7.153175     -1.621043
  C       2.547069     -6.147965     -2.520766
  H       0.297224      0.859815      0.915258
  H      -0.159964     -0.118466     -0.504505
  H       0.601647      1.477913     -0.726018
  H       4.294171     -0.647916      0.281897
  H       2.201735     -2.666764     -1.002364
  H       3.312303     -1.790710     -5.075699
  H       3.275287      0.649923     -4.548880
  H       2.665844      1.421820     -2.274195
  H       4.547282     -3.645031     -1.332485
  H       5.187616     -5.447418      0.244435
  H       4.120878     -7.692779      0.077326
  H       2.426446     -8.136810     -1.696659
  H       1.816657     -6.335815     -3.309517
33
Coordinates from ORCA-job Dexketoprofen\Dexketoprofen_PBE_def2-TZVP\Dexketoprofen_PBE_def2-TZVP.orcainp E -843.138426938724
  H       1.927140     -0.994920      0.557110
  C       1.968357     -0.104859     -0.095399
  C       0.592520      0.567112     -0.100154
  C       3.032445      0.806974      0.522756
  O       4.266953      0.265926      0.680878
  O       2.844792      1.954209      0.881972
  C       2.390095     -0.574803     -1.482125
  C       2.449792     -1.941049     -1.780909
  C       2.780629     -2.387076     -3.071690
  C       3.063280     -1.443297     -4.072719
  C       3.035006     -0.081941     -3.776309
  C       2.695011      0.351434     -2.491896
  C       2.758130     -3.838024     -3.437258
  O       2.436210     -4.179109     -4.580734
  C       3.122791     -4.869728     -2.419634
  C       4.072910     -4.626316     -1.412176
  C       4.438440     -5.643687     -0.528595
  C       3.843238     -6.904676     -0.626549
  C       2.892264     -7.154206     -1.623936
  C       2.545167     -6.148261     -2.522485
  H       0.300166      0.858033      0.917544
  H      -0.158002     -0.131265     -0.494327
  H       0.593146      1.468204     -0.728388
  H       4.285979     -0.656290      0.351729
  H       2.204826     -2.666598     -1.002632
  H       3.313893     -1.789987     -5.076366
  H       3.276636      0.649502     -4.549476
  H       2.664801      1.422227     -2.275448
  H       4.549640     -3.647987     -1.336289
  H       5.190373     -5.450919      0.238559
  H       4.121786     -7.695531      0.072446
  H       2.424346     -8.137410     -1.699456
  H       1.813060     -6.336033     -3.309685
33
Coordinates from ORCA-job Dexketoprofen\Dexketoprofen_PBE_def2-TZVP\Dexketoprofen_PBE_def2-TZVP.orcainp E -843.138419382125
  H       1.929886     -0.993368      0.557029
  C       1.969686     -0.104549     -0.096286
  C       0.596008      0.570953     -0.098200
  C       3.039633      0.812624      0.503552
  O       4.249387      0.246708      0.743084
  O       2.879648      1.988805      0.771866
  C       2.388279     -0.574640     -1.484737
  C       2.449941     -1.940626     -1.783071
  C       2.779177     -2.386906     -3.074138
  C       3.059906     -1.443196     -4.075851
  C       3.029723     -0.081883     -3.779520
  C       2.689685      0.351800     -2.495100
  C       2.753088     -3.838098     -3.438952
  O       2.423402     -4.178490     -4.580262
  C       3.123116     -4.869551     -2.423271
  C       4.076271     -4.626150     -1.418790
  C       4.444821     -5.643142     -0.536104
  C       3.850114     -6.904519     -0.631977
  C       2.896450     -7.154429     -1.626713
  C       2.546131     -6.148581     -2.524034
  H       0.309072      0.867857      0.919509
  H      -0.157776     -0.128248     -0.484896
  H       0.594493      1.468828     -0.730668
  H       4.247475     -0.699585      0.491725
  H       2.207694     -2.666675     -1.004448
  H       3.310344     -1.788877     -5.079898
  H       3.270013      0.649290     -4.553402
  H       2.656546      1.422600     -2.279455
  H       4.553295     -3.647899     -1.343940
  H       5.198933     -5.449760      0.228729
  H       4.131123     -7.695133      0.066254
  H       2.428763     -8.137819     -1.701108
  H       1.811493     -6.337691     -3.308566
33
Coordinates from ORCA-job Dexketoprofen\Dexketoprofen_PBE_def2-TZVP\Dexketoprofen_PBE_def2-TZVP.orcainp E -843.138444666249
  H       1.918522     -0.997378      0.552554
  C       1.966134     -0.105779     -0.096881
  C       0.596036      0.578001     -0.099601
  C       3.040184      0.797892      0.515333
  O       4.257839      0.231821      0.711104
  O       2.875581      1.960470      0.834100
  C       2.385054     -0.574996     -1.485034
  C       2.447324     -1.941044     -1.783295
  C       2.777767     -2.386684     -3.074353
  C       3.057781     -1.442581     -4.075800
  C       3.027134     -0.081274     -3.779623
  C       2.687508      0.351795     -2.494993
  C       2.758368     -3.837980     -3.438962
  O       2.437283     -4.180472     -4.582343
  C       3.124825     -4.868256     -2.420616
  C       4.074516     -4.622548     -1.413304
  C       4.441920     -5.638739     -0.529157
  C       3.849068     -6.900890     -0.626327
  C       2.898564     -7.152787     -1.623601
  C       2.549620     -6.147976     -2.522716
  H       0.306862      0.869820      0.918859
  H      -0.160569     -0.113525     -0.494260
  H       0.603789      1.479927     -0.726408
  H       4.257538     -0.701783      0.415135
  H       2.204123     -2.666822     -1.004675
  H       3.308388     -1.788953     -5.079574
  H       3.266687      0.650466     -4.553169
  H       2.655595      1.422449     -2.278394
  H       4.549398     -3.643251     -1.338130
  H       5.193499     -5.444055      0.237870
  H       4.129038     -7.690794      0.073183
  H       2.432488     -8.136899     -1.698641
  H       1.817958     -6.337524     -3.309920
33
Coordinates from ORCA-job Dexketoprofen\Dexketoprofen_PBE_def2-TZVP\Dexketoprofen_PBE_def2-TZVP.orcainp E -843.138449927189
  H       1.912421     -0.999045      0.549699
  C       1.964896     -0.106091     -0.097435
  C       0.597944      0.584341     -0.100079
  C       3.043659      0.790793      0.516000
  O       4.255797      0.214714      0.716360
  O       2.887532      1.955359      0.831267
  C       2.382712     -0.575004     -1.486124
  C       2.444249     -1.941127     -1.784288
  C       2.774675     -2.386681     -3.075441
  C       3.054126     -1.442628     -4.077010
  C       3.023698     -0.081295     -3.781031
  C       2.685293      0.351752     -2.496098
  C       2.758737     -3.838122     -3.439564
  O       2.440835     -4.181988     -4.583575
  C       3.125332     -4.867476     -2.420260
  C       4.073636     -4.619619     -1.412105
  C       4.442320     -5.635098     -0.527634
  C       3.851954     -6.898376     -0.625288
  C       2.902719     -7.152276     -1.623267
  C       2.552561     -6.148236     -2.522846
  H       0.309137      0.875382      0.918729
  H      -0.161796     -0.102335     -0.497088
  H       0.611389      1.487528     -0.724997
  H       4.247226     -0.719539      0.422471
  H       2.200516     -2.666655     -1.005586
  H       3.304306     -1.789361     -5.080770
  H       3.262556      0.650530     -4.554704
  H       2.654438      1.422375     -2.279217
  H       4.546397     -3.639288     -1.336857
  H       5.192871     -5.438919      0.240040
  H       4.132864     -7.687692      0.074545
  H       2.438695     -8.137342     -1.698583
  H       1.822124     -6.338931     -3.310905
33
Coordinates from ORCA-job Dexketoprofen\Dexketoprofen_PBE_def2-TZVP\Dexketoprofen_PBE_def2-TZVP.orcainp E -843.138452462771
  H       1.907870     -1.000541      0.547161
  C       1.964433     -0.106342     -0.097810
  C       0.600368      0.590090     -0.100402
  C       3.047860      0.785146      0.514809
  O       4.252118      0.197270      0.728250
  O       2.902542      1.954429      0.816975
  C       2.380778     -0.574965     -1.487352
  C       2.441259     -1.941207     -1.785388
  C       2.771014     -2.386711     -3.076746
  C       3.049548     -1.442744     -4.078625
  C       3.019687     -0.081375     -3.782875
  C       2.683187      0.351690     -2.497445
  C       2.758647     -3.838234     -3.440472
  O       2.443853     -4.183561     -4.585064
  C       3.125632     -4.866689     -2.420276
  C       4.072623     -4.616567     -1.411364
  C       4.442883     -5.631352     -0.526708
  C       3.855251     -6.895857     -0.624941
  C       2.907189     -7.151846     -1.623506
  C       2.555511     -6.148576     -2.523411
  H       0.312156      0.881003      0.918652
  H      -0.162332     -0.092297     -0.499006
  H       0.619168      1.494004     -0.724149
  H       4.232851     -0.739998      0.444629
  H       2.197314     -2.666387     -1.006417
  H       3.298769     -1.790006     -5.082435
  H       3.257509      0.650553     -4.556752
  H       2.653764      1.422297     -2.280264
  H       4.542966     -3.635073     -1.335994
  H       5.192452     -5.433624      0.241549
  H       4.137357     -7.684609      0.075083
  H       2.445373     -8.137934     -1.699089
  H       1.826220     -6.340338     -3.312258
33
Coordinates from ORCA-job Dexketoprofen\Dexketoprofen_PBE_def2-TZVP\Dexketoprofen_PBE_def2-TZVP.orcainp E -843.138452563410
  H       1.908492     -1.000786      0.547282
  C       1.964584     -0.106554     -0.097700
  C       0.600281      0.589387     -0.100206
  C       3.047711      0.785283      0.514946
  O       4.252792      0.198273      0.726705
  O       2.901534      1.954064      0.818575
  C       2.380843     -0.575035     -1.487337
  C       2.441553     -1.941265     -1.785405
  C       2.771293     -2.386675     -3.076769
  C       3.049589     -1.442605     -4.078664
  C       3.019546     -0.081251     -3.782889
  C       2.683062      0.351690     -2.497396
  C       2.759276     -3.838128     -3.440650
  O       2.445058     -4.183494     -4.585389
  C       3.125848     -4.866638     -2.420309
  C       4.072701     -4.616624     -1.411232
  C       4.442523     -5.631412     -0.526393
  C       3.854582     -6.895769     -0.624630
  C       2.906656     -7.151634     -1.623349
  C       2.555423     -6.148391     -2.523448
  H       0.311999      0.880154      0.918871
  H      -0.162196     -0.093218     -0.498861
  H       0.618906      1.493323     -0.723937
  H       4.233992     -0.738655      0.441884
  H       2.197861     -2.666456     -1.006372
  H       3.298760     -1.789931     -5.082466
  H       3.257212      0.650796     -4.556701
  H       2.653612      1.422283     -2.280139
  H       4.543186     -3.635203     -1.335884
  H       5.191983     -5.433815      0.242001
  H       4.136349     -7.684523      0.075524
  H       2.444585     -8.137608     -1.698864
  H       1.826226     -6.339931     -3.312438
