33
Coordinates from ORCA-job Ibuprofen\Ibuprofen_TPSS_def2-TZVP\Ibuprofen_TPSS_def2-TZVP.orcainp E -657.061058492722
  C       2.950210     -0.389000      1.262740
  C       2.520450     -1.278480      0.093380
  C       0.995530     -1.407410      0.076750
  C       3.033050     -0.735040     -1.257200
  C       4.542160     -0.631790     -1.323750
  C       5.344210     -1.773030     -1.210370
  C       6.738460     -1.668380     -1.228430
  C       7.361340     -0.421860     -1.387150
  C       6.552280      0.718750     -1.505690
  C       5.159950      0.614500     -1.474460
  C       8.879980     -0.340920     -1.484840
  C       9.281890      0.247720     -2.841950
  C       9.611730      0.405240     -0.371630
  O       8.877450      0.766000      0.705490
  O      10.811950      0.643840     -0.413180
  H       2.593040     -0.801410      2.212030
  H       2.550000      0.625120      1.157900
  H       4.040240     -0.317770      1.333420
  H       2.933340     -2.279880      0.258260
  H       0.513450     -0.436170     -0.077450
  H       0.634240     -1.816020      1.026560
  H       0.667840     -2.081460     -0.721440
  H       2.583410      0.247560     -1.451140
  H       2.698960     -1.387020     -2.075130
  H       4.888860     -2.754890     -1.103260
  H       7.327480     -2.578870     -1.137920
  H       6.995990      1.704320     -1.635670
  H       4.560540      1.518480     -1.569840
  H       9.275100     -1.364820     -1.437490
  H       8.930760      1.279030     -2.956910
  H       8.863860     -0.344310     -3.663560
  H      10.370780      0.265190     -2.961320
  H       7.938070      0.511290      0.667340
33
Coordinates from ORCA-job Ibuprofen\Ibuprofen_TPSS_def2-TZVP\Ibuprofen_TPSS_def2-TZVP.orcainp E -657.063329495894
  C       2.904278     -0.343999      1.290914
  C       2.509205     -1.265327      0.128079
  C       0.983981     -1.438592      0.076551
  C       3.035844     -0.738777     -1.225871
  C       4.547134     -0.631279     -1.302731
  C       5.355685     -1.772741     -1.224299
  C       6.748045     -1.670488     -1.278093
  C       7.373626     -0.425120     -1.425222
  C       6.564153      0.717091     -1.508545
  C       5.172087      0.613811     -1.445790
  C       8.891258     -0.342001     -1.521516
  C       9.340526      0.257941     -2.869245
  C       9.589160      0.384243     -0.368173
  O       8.838402      0.726894      0.698397
  O      10.777646      0.649876     -0.370289
  H       2.534201     -0.744209      2.242047
  H       2.482350      0.659901      1.156987
  H       3.992644     -0.244836      1.377144
  H       2.949800     -2.254441      0.311391
  H       0.483656     -0.478319     -0.099467
  H       0.608630     -1.845645      1.022828
  H       0.690148     -2.126220     -0.725876
  H       2.588337      0.243371     -1.424733
  H       2.689567     -1.402461     -2.030934
  H       4.901311     -2.755524     -1.122867
  H       7.343531     -2.578489     -1.211404
  H       7.011288      1.702143     -1.624192
  H       4.571671      1.518004     -1.512019
  H       9.282702     -1.366798     -1.468382
  H       8.992463      1.289789     -2.983596
  H       8.939519     -0.330118     -3.699892
  H      10.431740      0.265734     -2.952364
  H       7.902011      0.465097      0.595256
33
Coordinates from ORCA-job Ibuprofen\Ibuprofen_TPSS_def2-TZVP\Ibuprofen_TPSS_def2-TZVP.orcainp E -657.063822129644
  C       2.867434     -0.278374      1.299156
  C       2.508094     -1.246908      0.161407
  C       0.988343     -1.469009      0.086876
  C       3.039673     -0.751893     -1.204603
  C       4.548260     -0.636498     -1.292118
  C       5.365773     -1.775348     -1.238637
  C       6.754622     -1.670638     -1.317058
  C       7.379299     -0.423945     -1.456722
  C       6.565300      0.716781     -1.518186
  C       5.175172      0.608799     -1.432079
  C       8.893701     -0.333132     -1.557760
  C       9.377471      0.293021     -2.885532
  C       9.564247      0.366929     -0.366499
  O       8.811091      0.615451      0.725619
  O      10.754263      0.609431     -0.317446
  H       2.492128     -0.654652      2.258304
  H       2.418466      0.708162      1.123755
  H       3.951918     -0.144505      1.390028
  H       2.980570     -2.216791      0.374776
  H       0.468369     -0.525485     -0.124778
  H       0.604994     -1.859439      1.036986
  H       0.728945     -2.182588     -0.704710
  H       2.590287      0.225839     -1.421992
  H       2.686696     -1.442155     -1.983658
  H       4.914087     -2.759994     -1.139792
  H       7.360652     -2.573054     -1.272360
  H       7.013116      1.701578     -1.632445
  H       4.569067      1.510290     -1.480420
  H       9.288294     -1.357532     -1.513764
  H       9.023033      1.323600     -2.986550
  H       8.992715     -0.288868     -3.727073
  H      10.469378      0.297616     -2.932965
  H       7.881142      0.351820      0.554331
33
Coordinates from ORCA-job Ibuprofen\Ibuprofen_TPSS_def2-TZVP\Ibuprofen_TPSS_def2-TZVP.orcainp E -657.064044587925
  C       2.850535     -0.226680      1.291795
  C       2.513092     -1.231075      0.179608
  C       0.999171     -1.483482      0.100025
  C       3.042698     -0.762827     -1.198348
  C       4.547890     -0.645882     -1.292345
  C       5.367152     -1.785544     -1.256646
  C       6.754041     -1.681768     -1.343124
  C       7.380710     -0.433966     -1.470903
  C       6.566252      0.708300     -1.515356
  C       5.177415      0.599419     -1.422342
  C       8.893041     -0.340868     -1.574893
  C       9.391050      0.322916     -2.878422
  C       9.556072      0.318274     -0.353459
  O       8.792266      0.541050      0.741300
  O      10.725291      0.652364     -0.323699
  H       2.477131     -0.582292      2.259183
  H       2.382470      0.744983      1.085928
  H       3.931609     -0.068805      1.378808
  H       3.005903     -2.185433      0.416935
  H       0.466707     -0.554044     -0.141226
  H       0.614408     -1.853950      1.057127
  H       0.759676     -2.220672     -0.675083
  H       2.592352      0.210859     -1.432847
  H       2.686968     -1.474195     -1.955863
  H       4.913983     -2.770615     -1.165542
  H       7.364636     -2.582010     -1.315921
  H       7.016601      1.692733     -1.624017
  H       4.569049      1.500603     -1.458069
  H       9.287336     -1.366262     -1.554436
  H       9.031245      1.353545     -2.953377
  H       9.015119     -0.241963     -3.735428
  H      10.482948      0.326998     -2.905358
  H       7.871785      0.258797      0.540084
33
Coordinates from ORCA-job Ibuprofen\Ibuprofen_TPSS_def2-TZVP\Ibuprofen_TPSS_def2-TZVP.orcainp E -657.064275022389
  C       2.857753     -0.208276      1.274525
  C       2.519221     -1.226683      0.176543
  C       1.006000     -1.481070      0.110223
  C       3.040982     -0.772045     -1.209306
  C       4.545775     -0.652638     -1.303219
  C       5.365726     -1.790854     -1.259469
  C       6.753281     -1.683742     -1.338849
  C       7.376255     -0.433791     -1.468819
  C       6.559319      0.706732     -1.519131
  C       5.170451      0.594754     -1.434569
  C       8.889418     -0.337296     -1.570619
  C       9.374519      0.342954     -2.868440
  C       9.560966      0.311859     -0.349813
  O       8.809368      0.489470      0.762612
  O      10.732973      0.640207     -0.325658
  H       2.492607     -0.554317      2.248362
  H       2.385414      0.759320      1.060681
  H       3.938722     -0.046222      1.354265
  H       3.013671     -2.176806      0.424414
  H       0.469801     -0.557335     -0.142945
  H       0.627775     -1.836730      1.075550
  H       0.763505     -2.232339     -0.650365
  H       2.585888      0.196175     -1.455657
  H       2.689951     -1.493121     -1.959836
  H       4.914123     -2.776443     -1.167260
  H       7.364668     -2.583203     -1.305097
  H       7.006797      1.692554     -1.626500
  H       4.560326      1.494511     -1.475919
  H       9.286956     -1.361859     -1.565758
  H       9.011853      1.373455     -2.930441
  H       8.997249     -0.211989     -3.731727
  H      10.466545      0.353586     -2.903412
  H       7.888742      0.199692      0.579723
33
Coordinates from ORCA-job Ibuprofen\Ibuprofen_TPSS_def2-TZVP\Ibuprofen_TPSS_def2-TZVP.orcainp E -657.064325937228
  C       2.861528     -0.172830      1.257538
  C       2.527695     -1.216319      0.182306
  C       1.016790     -1.484280      0.128020
  C       3.040161     -0.784648     -1.215285
  C       4.543792     -0.661738     -1.313633
  C       5.365135     -1.798908     -1.274229
  C       6.752587     -1.688921     -1.351865
  C       7.372883     -0.436752     -1.477887
  C       6.554009      0.702650     -1.522322
  C       5.165736      0.587730     -1.439535
  C       8.885922     -0.334943     -1.574404
  C       9.372714      0.368007     -2.858399
  C       9.550402      0.295697     -0.340289
  O       8.799412      0.416598      0.781242
  O      10.715945      0.645511     -0.310260
  H       2.506070     -0.502643      2.240468
  H       2.377852      0.785172      1.026872
  H       3.941252      0.001777      1.327004
  H       3.032190     -2.156511      0.446428
  H       0.472204     -0.571467     -0.145661
  H       0.644658     -1.819243      1.103081
  H       0.778149     -2.255992     -0.613033
  H       2.579462      0.176473     -1.477716
  H       2.690988     -1.522509     -1.949967
  H       4.914265     -2.785234     -1.185966
  H       7.366675     -2.586665     -1.321448
  H       7.000348      1.689695     -1.622134
  H       4.553453      1.486228     -1.476972
  H       9.286805     -1.358495     -1.584352
  H       9.006114      1.397793     -2.905410
  H       9.001947     -0.174746     -3.732297
  H      10.464820      0.383531     -2.887329
  H       7.884635      0.114495      0.591524
33
Coordinates from ORCA-job Ibuprofen\Ibuprofen_TPSS_def2-TZVP\Ibuprofen_TPSS_def2-TZVP.orcainp E -657.064359153820
  C       2.862954     -0.142887      1.244447
  C       2.533827     -1.206792      0.188153
  C       1.024793     -1.485501      0.143446
  C       3.039507     -0.796431     -1.219614
  C       4.542491     -0.669439     -1.322262
  C       5.364834     -1.805843     -1.290442
  C       6.752461     -1.693414     -1.366553
  C       7.370737     -0.439182     -1.485564
  C       6.550343      0.699309     -1.523279
  C       5.162481      0.582091     -1.441190
  C       8.884060     -0.332416     -1.577093
  C       9.373142      0.386042     -2.850555
  C       9.540783      0.285826     -0.332224
  O       8.792677      0.352481      0.796330
  O      10.695771      0.667511     -0.298540
  H       2.515350     -0.459450      2.234488
  H       2.369606      0.806770      1.000281
  H       3.941113      0.042248      1.305831
  H       3.046597     -2.138470      0.465788
  H       0.473806     -0.582218     -0.148218
  H       0.656743     -1.802005      1.126222
  H       0.789640     -2.274261     -0.580574
  H       2.572761      0.157258     -1.497344
  H       2.692896     -1.550166     -1.938954
  H       4.914083     -2.792808     -1.208329
  H       7.368799     -2.589812     -1.342090
  H       6.996036      1.687311     -1.615294
  H       4.548436      1.479575     -1.473764
  H       9.287690     -1.355114     -1.596067
  H       9.003683      1.415126     -2.887545
  H       9.008451     -0.147935     -3.732412
  H      10.465315      0.405393     -2.873958
  H       7.884733      0.035712      0.600971
33
Coordinates from ORCA-job Ibuprofen\Ibuprofen_TPSS_def2-TZVP\Ibuprofen_TPSS_def2-TZVP.orcainp E -657.064407617882
  C       2.862384     -0.094636      1.222413
  C       2.542664     -1.190397      0.196427
  C       1.036927     -1.487474      0.164557
  C       3.039400     -0.814828     -1.225666
  C       4.541230     -0.680358     -1.332435
  C       5.365326     -1.815228     -1.314130
  C       6.753033     -1.698736     -1.388920
  C       7.367701     -0.441282     -1.492809
  C       6.544952      0.695729     -1.517906
  C       5.157803      0.574623     -1.437981
  C       8.881023     -0.326910     -1.580608
  C       9.371619      0.409592     -2.841511
  C       9.525463      0.276358     -0.321609
  O       8.793048      0.242772      0.819406
  O      10.654688      0.726664     -0.285589
  H       2.525709     -0.390370      2.222614
  H       2.353605      0.841108      0.957072
  H       3.938104      0.107482      1.272420
  H       3.068953     -2.107756      0.495644
  H       0.475503     -0.600078     -0.154526
  H       0.673990     -1.776259      1.157738
  H       0.809155     -2.301390     -0.533547
  H       2.562500      0.125727     -1.529093
  H       2.698766     -1.593977     -1.919913
  H       4.914891     -2.803273     -1.243693
  H       7.372817     -2.592995     -1.376150
  H       6.989530      1.685249     -1.597809
  H       4.540859      1.470347     -1.462003
  H       9.288364     -1.348350     -1.609571
  H       8.998492      1.437679     -2.866400
  H       9.014070     -0.113534     -3.732742
  H      10.463821      0.434240     -2.859477
  H       7.900208     -0.111227      0.619886
33
Coordinates from ORCA-job Ibuprofen\Ibuprofen_TPSS_def2-TZVP\Ibuprofen_TPSS_def2-TZVP.orcainp E -657.064455335928
  C       2.861050     -0.063325      1.207463
  C       2.546811     -1.178533      0.201190
  C       1.042821     -1.485405      0.176539
  C       3.039640     -0.828103     -1.229570
  C       4.540760     -0.687129     -1.338076
  C       5.366643     -1.820264     -1.329028
  C       6.754529     -1.700115     -1.402255
  C       7.365673     -0.440513     -1.495831
  C       6.540921      0.695091     -1.511896
  C       5.154321      0.570676     -1.433583
  C       8.879250     -0.320207     -1.581947
  C       9.370053      0.420903     -2.838425
  C       9.512498      0.280124     -0.315894
  O       8.806925      0.152946      0.835784
  O      10.608782      0.804593     -0.281171
  H       2.529320     -0.345258      2.213325
  H       2.344604      0.864238      0.928549
  H       3.935378      0.147347      1.251934
  H       3.080251     -2.087016      0.514782
  H       0.476142     -0.607606     -0.159354
  H       0.681954     -1.756739      1.175398
  H       0.819208     -2.313896     -0.505591
  H       2.555003      0.101866     -1.552562
  H       2.704854     -1.625300     -1.905626
  H       4.916946     -2.809204     -1.267037
  H       7.376868     -2.592669     -1.397155
  H       6.984300      1.685803     -1.583368
  H       4.535035      1.464877     -1.451305
  H       9.289126     -1.340975     -1.611057
  H       8.994936      1.448371     -2.860703
  H       9.016604     -0.099209     -3.733031
  H      10.462269      0.449394     -2.854684
  H       7.933123     -0.246256      0.638276
33
Coordinates from ORCA-job Ibuprofen\Ibuprofen_TPSS_def2-TZVP\Ibuprofen_TPSS_def2-TZVP.orcainp E -657.064509920631
  C       2.855002     -0.075373      1.215678
  C       2.538870     -1.181263      0.199910
  C       1.032645     -1.477635      0.166010
  C       3.040497     -0.827940     -1.226936
  C       4.542446     -0.684591     -1.334450
  C       5.369272     -1.816990     -1.326073
  C       6.757732     -1.696164     -1.398487
  C       7.368310     -0.436721     -1.490817
  C       6.542882      0.698674     -1.506524
  C       5.155866      0.573816     -1.428348
  C       8.883155     -0.316186     -1.579489
  C       9.369800      0.406521     -2.847444
  C       9.517252      0.303063     -0.323268
  O       8.836286      0.150902      0.839263
  O      10.594306      0.866573     -0.303976
  H       2.514684     -0.362884      2.217162
  H       2.347028      0.858091      0.940924
  H       3.929857      0.127446      1.269750
  H       3.064032     -2.095632      0.510801
  H       0.473531     -0.592931     -0.164574
  H       0.665570     -1.755212      1.160877
  H       0.805928     -2.298392     -0.524417
  H       2.555578      0.101869     -1.550388
  H       2.707981     -1.623726     -1.905826
  H       4.920250     -2.806256     -1.265434
  H       7.379491     -2.589121     -1.393749
  H       6.985737      1.689692     -1.577907
  H       4.536669      1.468045     -1.444925
  H       9.292301     -1.337571     -1.593831
  H       8.996078      1.434281     -2.882570
  H       9.012452     -0.124559     -3.733995
  H      10.462032      0.434903     -2.870368
  H       7.973083     -0.276219      0.657510
33
Coordinates from ORCA-job Ibuprofen\Ibuprofen_TPSS_def2-TZVP\Ibuprofen_TPSS_def2-TZVP.orcainp E -657.064573905042
  C       2.852020     -0.094915      1.224661
  C       2.530512     -1.186050      0.194753
  C       1.021442     -1.467541      0.148489
  C       3.042207     -0.823026     -1.224354
  C       4.544394     -0.679615     -1.327119
  C       5.371862     -1.811517     -1.317548
  C       6.760543     -1.690585     -1.389664
  C       7.370419     -0.431539     -1.480778
  C       6.545066      0.703768     -1.496003
  C       5.158069      0.578769     -1.419161
  C       8.885583     -0.310661     -1.574616
  C       9.366425      0.381536     -2.860845
  C       9.516462      0.341511     -0.335129
  O       8.875899      0.150688      0.844506
  O      10.559591      0.966308     -0.340923
  H       2.501829     -0.391309      2.220245
  H       2.355206      0.847007      0.958305
  H       3.928723      0.097088      1.288702
  H       3.043961     -2.109416      0.499315
  H       0.472443     -0.571729     -0.169249
  H       0.647319     -1.758803      1.136737
  H       0.789722     -2.273839     -0.557182
  H       2.560516      0.110419     -1.543289
  H       2.710446     -1.611621     -1.912277
  H       4.923957     -2.801322     -1.257725
  H       7.380873     -2.584566     -1.384464
  H       6.987452      1.695046     -1.567255
  H       4.539540      1.473503     -1.434006
  H       9.294634     -1.332060     -1.563555
  H       8.993736      1.408848     -2.917707
  H       9.002980     -0.168810     -3.733074
  H      10.458554      0.409463     -2.893263
  H       8.034216     -0.326518      0.687562
33
Coordinates from ORCA-job Ibuprofen\Ibuprofen_TPSS_def2-TZVP\Ibuprofen_TPSS_def2-TZVP.orcainp E -657.064637938954
  C       2.841688     -0.138079      1.246556
  C       2.518383     -1.197602      0.184669
  C       1.006829     -1.461623      0.117586
  C       3.044840     -0.801023     -1.218052
  C       4.547909     -0.663408     -1.311862
  C       5.373126     -1.797152     -1.300300
  C       6.762130     -1.680248     -1.372855
  C       7.375049     -0.423418     -1.466437
  C       6.553075      0.714038     -1.480450
  C       5.165773      0.592726     -1.403167
  C       8.890421     -0.306756     -1.567610
  C       9.365834      0.330390     -2.883422
  C       9.516935      0.400278     -0.358835
  O       8.920643      0.194436      0.841673
  O      10.523321      1.082145     -0.402774
  H       2.477107     -0.457285      2.229884
  H       2.358140      0.816293      1.000747
  H       3.919562      0.040837      1.326733
  H       3.017416     -2.134866      0.470435
  H       0.469301     -0.549584     -0.172512
  H       0.622966     -1.783554      1.092459
  H       0.772166     -2.240454     -0.617291
  H       2.572800      0.144864     -1.515098
  H       2.710328     -1.565834     -1.931453
  H       4.924468     -2.786596     -1.239612
  H       7.378052     -2.577257     -1.366256
  H       6.997473      1.704491     -1.552312
  H       4.550633      1.489927     -1.416748
  H       9.298045     -1.327237     -1.512858
  H       8.996498      1.356093     -2.979398
  H       8.992457     -0.253544     -3.729391
  H      10.457728      0.352827     -2.927020
  H       8.105503     -0.335316      0.719059
33
Coordinates from ORCA-job Ibuprofen\Ibuprofen_TPSS_def2-TZVP\Ibuprofen_TPSS_def2-TZVP.orcainp E -657.064693298553
  C       2.840129     -0.162736      1.251483
  C       2.514177     -1.201347      0.170055
  C       1.002129     -1.460184      0.096359
  C       3.043527     -0.777280     -1.222744
  C       4.546600     -0.646134     -1.303724
  C       5.367372     -1.782517     -1.297385
  C       6.756817     -1.669322     -1.363823
  C       7.372384     -0.413300     -1.447416
  C       6.555355      0.726766     -1.454055
  C       5.168444      0.608883     -1.381816
  C       8.887484     -0.298065     -1.554334
  C       9.360384      0.271610     -2.899662
  C       9.494616      0.474353     -0.378494
  O       8.998135      0.181406      0.851309
  O      10.404349      1.276939     -0.465795
  H       2.472712     -0.497779      2.228397
  H       2.361153      0.797988      1.022089
  H       3.919494      0.009868      1.335297
  H       3.009935     -2.145080      0.439261
  H       0.466831     -0.540947     -0.174140
  H       0.617105     -1.802683      1.063758
  H       0.766538     -2.222701     -0.655103
  H       2.578080      0.177097     -1.502530
  H       2.708689     -1.524834     -1.954114
  H       4.915934     -2.771270     -1.245577
  H       7.369488     -2.568556     -1.362690
  H       7.003489      1.716378     -1.516165
  H       4.555989      1.508097     -1.390185
  H       9.295933     -1.314130     -1.444515
  H       8.993032      1.292196     -3.044839
  H       8.981649     -0.352512     -3.714191
  H      10.452134      0.289284     -2.949601
  H       8.246515     -0.440979      0.768980
33
Coordinates from ORCA-job Ibuprofen\Ibuprofen_TPSS_def2-TZVP\Ibuprofen_TPSS_def2-TZVP.orcainp E -657.064712743497
  C       2.834048     -0.170078      1.258071
  C       2.512933     -1.203637      0.170169
  C       1.001684     -1.465913      0.094149
  C       3.043314     -0.768917     -1.219834
  C       4.547463     -0.640859     -1.303451
  C       5.366696     -1.778833     -1.294851
  C       6.756296     -1.668484     -1.362368
  C       7.375080     -0.413851     -1.447462
  C       6.559779      0.727675     -1.458078
  C       5.171944      0.612552     -1.385843
  C       8.890747     -0.302396     -1.554283
  C       9.362185      0.267643     -2.900561
  C       9.502467      0.470844     -0.381108
  O       8.989385      0.202334      0.847442
  O      10.424658      1.258717     -0.470557
  H       2.465245     -0.510072      2.232686
  H       2.353788      0.790666      1.031580
  H       3.912240      0.003970      1.344746
  H       3.010958     -2.147436      0.434401
  H       0.464115     -0.547557     -0.174739
  H       0.616350     -1.811827      1.060231
  H       0.769236     -2.227462     -0.659309
  H       2.580188      0.189172     -1.489812
  H       2.705292     -1.508966     -1.957376
  H       4.913687     -2.766679     -1.239599
  H       7.367868     -2.568459     -1.358484
  H       7.009905      1.716197     -1.523741
  H       4.560943      1.512725     -1.396867
  H       9.298190     -1.318734     -1.446077
  H       8.994244      1.288044     -3.044851
  H       8.982216     -0.356948     -3.714091
  H      10.454051      0.284314     -2.950418
  H       8.229405     -0.409234      0.764379
33
Coordinates from ORCA-job Ibuprofen\Ibuprofen_TPSS_def2-TZVP\Ibuprofen_TPSS_def2-TZVP.orcainp E -657.064720364502
  C       2.832891     -0.174637      1.260525
  C       2.514245     -1.203787      0.167414
  C       1.004211     -1.472844      0.093448
  C       3.041053     -0.756604     -1.220912
  C       4.546005     -0.632608     -1.306147
  C       5.362364     -1.772832     -1.298514
  C       6.752172     -1.665803     -1.364390
  C       7.374355     -0.412488     -1.446118
  C       6.562171      0.731073     -1.457714
  C       5.173644      0.619321     -1.387554
  C       8.890610     -0.304356     -1.549930
  C       9.364335      0.252305     -2.901123
  C       9.495420      0.484184     -0.383531
  O       8.998683      0.202264      0.849473
  O      10.393874      1.297637     -0.480314
  H       2.467338     -0.519933      2.234432
  H       2.348830      0.785220      1.038568
  H       3.910556      0.002372      1.345492
  H       3.017823     -2.146471      0.424467
  H       0.461648     -0.557028     -0.173947
  H       0.621769     -1.821338      1.059777
  H       0.774575     -2.235177     -0.660134
  H       2.580029      0.205395     -1.479367
  H       2.699463     -1.488961     -1.964440
  H       4.906691     -2.759501     -1.244213
  H       7.362742     -2.566458     -1.360129
  H       7.015558      1.718251     -1.522100
  H       4.564298      1.520610     -1.398601
  H       9.297423     -1.319392     -1.430032
  H       8.995537      1.270740     -3.055795
  H       8.986170     -0.381167     -3.708564
  H      10.456475      0.268319     -2.947899
  H       8.253639     -0.427797      0.771960
33
Coordinates from ORCA-job Ibuprofen\Ibuprofen_TPSS_def2-TZVP\Ibuprofen_TPSS_def2-TZVP.orcainp E -657.064722103955
  C       2.833892     -0.165720      1.257367
  C       2.516431     -1.201529      0.170098
  C       1.007090     -1.474983      0.099052
  C       3.040742     -0.760329     -1.221299
  C       4.545590     -0.635169     -1.308466
  C       5.362281     -1.775162     -1.300739
  C       6.751993     -1.667515     -1.367002
  C       7.373637     -0.413964     -1.450132
  C       6.560967      0.729288     -1.461944
  C       5.172505      0.617074     -1.390949
  C       8.890012     -0.305527     -1.552016
  C       9.365673      0.262496     -2.898280
  C       9.494864      0.473057     -0.378444
  O       8.987646      0.191610      0.850215
  O      10.402769      1.276700     -0.466221
  H       2.471785     -0.507204      2.233910
  H       2.346016      0.791267      1.031422
  H       3.911239      0.015301      1.339203
  H       3.023235     -2.141481      0.430911
  H       0.462016     -0.562686     -0.175257
  H       0.625931     -1.816664      1.068312
  H       0.778865     -2.243667     -0.648495
  H       2.578101      0.199931     -1.483256
  H       2.699415     -1.497095     -1.960517
  H       4.906593     -2.761805     -1.246478
  H       7.363597     -2.567474     -1.362847
  H       7.014084      1.716500     -1.526894
  H       4.562540      1.517903     -1.402496
  H       9.296627     -1.321521     -1.440392
  H       8.995909      1.281673     -3.045318
  H       8.990341     -0.364874     -3.711739
  H      10.457878      0.280214     -2.942243
  H       8.236336     -0.430136      0.765024
33
Coordinates from ORCA-job Ibuprofen\Ibuprofen_TPSS_def2-TZVP\Ibuprofen_TPSS_def2-TZVP.orcainp E -657.064722579984
  C       2.834061     -0.169129      1.258620
  C       2.515804     -1.202554      0.169322
  C       1.006242     -1.474372      0.097115
  C       3.040851     -0.759071     -1.220817
  C       4.545685     -0.634115     -1.307524
  C       5.362200     -1.774212     -1.299046
  C       6.751912     -1.666750     -1.365434
  C       7.373638     -0.413341     -1.449496
  C       6.561151      0.729989     -1.461841
  C       5.172715      0.617986     -1.390636
  C       8.890084     -0.305324     -1.551617
  C       9.365692      0.259741     -2.899226
  C       9.494945      0.475693     -0.379810
  O       8.989365      0.195556      0.849774
  O      10.402075      1.280067     -0.469532
  H       2.472045     -0.512517      2.234542
  H       2.346539      0.788537      1.034790
  H       3.911557      0.011337      1.340654
  H       3.021453     -2.143592      0.428545
  H       0.462163     -0.561060     -0.175843
  H       0.624349     -1.817326      1.065637
  H       0.777480     -2.241440     -0.651918
  H       2.578790      0.202017     -1.480946
  H       2.699423     -1.494066     -1.961781
  H       4.906449     -2.760800     -1.244306
  H       7.363359     -2.566817     -1.360833
  H       7.014283      1.717163     -1.527269
  H       4.562916      1.518927     -1.402449
  H       9.296298     -1.321222     -1.437910
  H       8.996114      1.278691     -3.048391
  H       8.990123     -0.369220     -3.711341
  H      10.457858      0.277290     -2.943713
  H       8.238982     -0.427557      0.766770
