30
Coordinates from ORCA-job Diclofenac\Diclofenac_PBE_STO-3G\Diclofenac_PBE_STO-3G.orcainp E -1645.016821458021
  O       3.205320      0.772220     -3.481650
  C       3.019920     -0.423630     -2.872600
  O       2.604390     -1.407650     -3.475150
  C       3.320480     -0.407060     -1.391560
  C       4.773730     -0.128810     -1.082440
  C       5.669430     -1.213420     -1.106510
  C       7.032330     -1.021230     -0.890210
  C       7.514530      0.252740     -0.623930
  C       6.634980      1.334310     -0.584780
  C       5.265760      1.173910     -0.860410
  N       4.372990      2.291240     -0.867070
  C       4.785160      3.665540     -0.982660
  C       5.631810      4.129340     -2.012640
  Cl      6.084050      3.138420     -3.359060
  C       6.114230      5.444790     -2.012140
  C       5.706520      6.346220     -1.032240
  C       4.791760      5.941540     -0.063850
  C       4.335910      4.617880     -0.041360
  Cl      3.210470      4.170110      1.195600
  H       3.589430      1.448890     -2.883090
  H       3.044050     -1.389420     -0.980930
  H       2.647280      0.304940     -0.903990
  H       5.309890     -2.220540     -1.316240
  H       7.715650     -1.865180     -0.932480
  H       8.576730      0.411960     -0.457710
  H       7.049620      2.313470     -0.361060
  H       3.794580      2.213950     -0.021130
  H       6.806030      5.773050     -2.785740
  H       6.084520      7.366220     -1.038980
  H       4.444790      6.659400      0.676500
30
Coordinates from ORCA-job Diclofenac\Diclofenac_PBE_STO-3G\Diclofenac_PBE_STO-3G.orcainp E -1645.047701204752
  O       3.167504      0.836453     -3.529271
  C       2.974344     -0.396375     -2.907527
  O       2.538012     -1.384566     -3.550802
  C       3.307622     -0.414328     -1.375804
  C       4.787625     -0.152479     -1.075655
  C       5.694497     -1.241271     -1.109227
  C       7.073229     -1.047355     -0.895313
  C       7.563013      0.244461     -0.622727
  C       6.674517      1.334921     -0.575275
  C       5.290632      1.161727     -0.841963
  N       4.354098      2.286170     -0.844111
  C       4.783257      3.657980     -0.961286
  C       5.652485      4.111348     -2.000766
  Cl      6.126070      3.038273     -3.339003
  C       6.128718      5.442119     -2.023168
  C       5.697538      6.368314     -1.052808
  C       4.767366      5.972986     -0.070924
  C       4.316652      4.636160     -0.027810
  Cl      3.152524      4.163233      1.233813
  H       3.571068      1.504842     -2.861554
  H       3.025820     -1.408053     -0.975510
  H       2.650608      0.316550     -0.861576
  H       5.322491     -2.256837     -1.321654
  H       7.764831     -1.903682     -0.942959
  H       8.639648      0.407720     -0.455094
  H       7.080407      2.333809     -0.348876
  H       3.725153      2.212369      0.006085
  H       6.833152      5.758966     -2.809152
  H       6.071968      7.403765     -1.075677
  H       4.401488      6.705979      0.666084
30
Coordinates from ORCA-job Diclofenac\Diclofenac_PBE_STO-3G\Diclofenac_PBE_STO-3G.orcainp E -1645.054850575922
  O       3.154734      0.951106     -3.508228
  C       2.961462     -0.321561     -2.922579
  O       2.526485     -1.279732     -3.620652
  C       3.308184     -0.409518     -1.372159
  C       4.799923     -0.169944     -1.077637
  C       5.707332     -1.261825     -1.109291
  C       7.089488     -1.073561     -0.881985
  C       7.585911      0.222370     -0.603475
  C       6.701453      1.321767     -0.562832
  C       5.315466      1.143166     -0.829038
  N       4.359199      2.269085     -0.841073
  C       4.812104      3.634794     -0.946049
  C       5.676068      4.098567     -1.995144
  Cl      6.167832      2.979389     -3.320994
  C       6.113694      5.443576     -2.052147
  C       5.658059      6.378473     -1.093127
  C       4.745476      5.976267     -0.089341
  C       4.333711      4.626544     -0.022901
  Cl      3.178865      4.113105      1.267071
  H       3.534544      1.557425     -2.757721
  H       3.020207     -1.419008     -1.013260
  H       2.671804      0.323303     -0.831041
  H       5.323013     -2.275774     -1.319719
  H       7.777509     -1.936257     -0.920168
  H       8.663078      0.380321     -0.419155
  H       7.096352      2.327312     -0.335117
  H       3.691631      2.199558     -0.018678
  H       6.800264      5.760348     -2.857209
  H       6.000668      7.426433     -1.139977
  H       4.361823      6.707470      0.644116
30
Coordinates from ORCA-job Diclofenac\Diclofenac_PBE_STO-3G\Diclofenac_PBE_STO-3G.orcainp E -1645.059172703754
  O       3.094095      1.098229     -3.410023
  C       2.947561     -0.231261     -2.915156
  O       2.538512     -1.145258     -3.684630
  C       3.317174     -0.425503     -1.368646
  C       4.812446     -0.191696     -1.079821
  C       5.722570     -1.281741     -1.103526
  C       7.102653     -1.093018     -0.861141
  C       7.597918      0.204079     -0.580995
  C       6.716319      1.307251     -0.556262
  C       5.333634      1.121727     -0.828869
  N       4.371912      2.250094     -0.874823
  C       4.843577      3.611977     -0.960594
  C       5.709214      4.093709     -2.003106
  Cl      6.242180      2.958421     -3.313656
  C       6.113289      5.447582     -2.075322
  C       5.627460      6.380408     -1.127582
  C       4.724340      5.965738     -0.118904
  C       4.349020      4.606809     -0.046777
  Cl      3.197463      4.057070      1.248260
  H       3.429680      1.635139     -2.582220
  H       3.043083     -1.460917     -1.080844
  H       2.688004      0.273813     -0.776943
  H       5.333373     -2.295651     -1.308931
  H       7.789882     -1.957651     -0.885262
  H       8.672989      0.360441     -0.379388
  H       7.099574      2.319003     -0.333964
  H       3.665312      2.188744     -0.082163
  H       6.792358      5.769405     -2.885463
  H       5.941202      7.437760     -1.185154
  H       4.319547      6.688497      0.612396
30
Coordinates from ORCA-job Diclofenac\Diclofenac_PBE_STO-3G\Diclofenac_PBE_STO-3G.orcainp E -1645.061877647575
  O       3.010238      1.262133     -3.276569
  C       2.923475     -0.122076     -2.903007
  O       2.549043     -0.971824     -3.757943
  C       3.328305     -0.464040     -1.377668
  C       4.821738     -0.219562     -1.079363
  C       5.739858     -1.303414     -1.085149
  C       7.115542     -1.108305     -0.823847
  C       7.604352      0.191269     -0.548133
  C       6.723086      1.295333     -0.549776
  C       5.345723      1.098182     -0.831353
  N       4.383924      2.231586     -0.922627
  C       4.877811      3.590531     -0.986238
  C       5.739543      4.094293     -2.022829
  Cl      6.313015      2.951896     -3.321997
  C       6.111896      5.455599     -2.106365
  C       5.602210      6.381877     -1.164058
  C       4.714330      5.952209     -0.147620
  C       4.375061      4.585091     -0.075295
  Cl      3.231991      3.996480      1.225695
  H       3.318780      1.707041     -2.381402
  H       3.085442     -1.530955     -1.200170
  H       2.695157      0.166213     -0.716315
  H       5.350620     -2.319141     -1.283704
  H       7.804570     -1.972216     -0.827637
  H       8.675449      0.350252     -0.326176
  H       7.089946      2.315360     -0.337457
  H       3.643888      2.185788     -0.156903
  H       6.780355      5.783777     -2.923063
  H       5.887543      7.447482     -1.229842
  H       4.293446      6.662341      0.587302
30
Coordinates from ORCA-job Diclofenac\Diclofenac_PBE_STO-3G\Diclofenac_PBE_STO-3G.orcainp E -1645.065431129969
  O       3.132656      1.348674     -3.221690
  C       2.961073     -0.039453     -2.901248
  O       2.542549     -0.841274     -3.783295
  C       3.332602     -0.435339     -1.385035
  C       4.825617     -0.226446     -1.076823
  C       5.731714     -1.320080     -1.070199
  C       7.108535     -1.133148     -0.804266
  C       7.606194      0.167117     -0.538066
  C       6.731416      1.277575     -0.549668
  C       5.352666      1.085335     -0.830571
  N       4.382571      2.212180     -0.919527
  C       4.867876      3.572310     -0.990245
  C       5.705082      4.079605     -2.045294
  Cl      6.270561      2.935490     -3.346638
  C       6.059139      5.445559     -2.141195
  C       5.556207      6.369973     -1.192559
  C       4.693901      5.933384     -0.156268
  C       4.371527      4.562410     -0.071244
  Cl      3.261489      3.964012      1.253003
  H       3.497383      1.737132     -2.315026
  H       3.061526     -1.499920     -1.235279
  H       2.708289      0.192849     -0.712477
  H       5.335163     -2.333971     -1.264687
  H       7.791400     -2.002234     -0.798473
  H       8.677609      0.320483     -0.312647
  H       7.104790      2.296075     -0.339830
  H       3.651791      2.164709     -0.144264
  H       6.707787      5.779135     -2.971889
  H       5.827090      7.438800     -1.268358
  H       4.280135      6.642258      0.584249
30
Coordinates from ORCA-job Diclofenac\Diclofenac_PBE_STO-3G\Diclofenac_PBE_STO-3G.orcainp E -1645.067819833170
  O       3.187329      1.365739     -3.190503
  C       2.966911     -0.003590     -2.887322
  O       2.487157     -0.789062     -3.752988
  C       3.337212     -0.413121     -1.382990
  C       4.829991     -0.231144     -1.085689
  C       5.725316     -1.331372     -1.046679
  C       7.100940     -1.141777     -0.780299
  C       7.601806      0.161902     -0.542084
  C       6.729748      1.273327     -0.577103
  C       5.353703      1.077774     -0.858248
  N       4.373939      2.197127     -0.962130
  C       4.855355      3.567457     -1.016325
  C       5.686953      4.081631     -2.066817
  Cl      6.270629      2.959663     -3.365756
  C       6.037316      5.449857     -2.145522
  C       5.536570      6.360788     -1.185038
  C       4.682913      5.909058     -0.150031
  C       4.362200      4.536515     -0.078742
  Cl      3.263515      3.929344      1.236897
  H       3.658790      1.759243     -2.317779
  H       3.045734     -1.471705     -1.232848
  H       2.724376      0.212508     -0.698569
  H       5.328263     -2.347877     -1.218982
  H       7.781061     -2.011328     -0.752131
  H       8.672087      0.316547     -0.318167
  H       7.109990      2.291965     -0.384136
  H       3.662711      2.146465     -0.169415
  H       6.684477      5.797130     -2.970522
  H       5.804657      7.430185     -1.249271
  H       4.274692      6.609949      0.599679
30
Coordinates from ORCA-job Diclofenac\Diclofenac_PBE_STO-3G\Diclofenac_PBE_STO-3G.orcainp E -1645.068628825217
  O       3.079054      1.387317     -3.124594
  C       2.949979      0.007103     -2.881652
  O       2.508197     -0.779682     -3.766693
  C       3.345917     -0.439921     -1.395114
  C       4.834955     -0.238277     -1.092832
  C       5.738343     -1.330885     -1.035780
  C       7.109334     -1.128069     -0.758734
  C       7.598702      0.178970     -0.526107
  C       6.719598      1.283453     -0.580231
  C       5.350232      1.075313     -0.875670
  N       4.367565      2.192961     -1.013632
  C       4.856951      3.569777     -1.049978
  C       5.696911      4.086139     -2.088530
  Cl      6.283800      2.982298     -3.393178
  C       6.061124      5.452198     -2.145561
  C       5.565404      6.353702     -1.175189
  C       4.703548      5.896539     -0.150640
  C       4.368027      4.526266     -0.100686
  Cl      3.258852      3.918434      1.198217
  H       3.508640      1.802071     -2.228178
  H       3.085819     -1.510604     -1.278185
  H       2.716648      0.137697     -0.683930
  H       5.352388     -2.352090     -1.202298
  H       7.795629     -1.991710     -0.717248
  H       8.665640      0.342659     -0.295385
  H       7.092889      2.305469     -0.394611
  H       3.660747      2.148749     -0.215470
  H       6.717046      5.805011     -2.960691
  H       5.844248      7.420905     -1.223544
  H       4.300151      6.591408      0.606615
30
Coordinates from ORCA-job Diclofenac\Diclofenac_PBE_STO-3G\Diclofenac_PBE_STO-3G.orcainp E -1645.069370271150
  O       3.049100      1.310839     -3.209019
  C       2.913145     -0.049219     -2.922798
  O       2.488395     -0.869084     -3.785917
  C       3.337023     -0.490788     -1.430346
  C       4.814775     -0.239888     -1.098139
  C       5.729832     -1.318347     -0.980976
  C       7.092455     -1.093967     -0.686176
  C       7.568519      0.219525     -0.487814
  C       6.684422      1.315391     -0.591906
  C       5.324662      1.086841     -0.902633
  N       4.342318      2.211893     -1.067565
  C       4.863135      3.589564     -1.077853
  C       5.660411      4.128552     -2.134319
  Cl      6.173566      3.065157     -3.498624
  C       6.043927      5.490152     -2.162793
  C       5.611464      6.362417     -1.138499
  C       4.796539      5.883322     -0.087237
  C       4.440842      4.517662     -0.073561
  Cl      3.387104      3.878594      1.255004
  H       3.524896      1.745330     -2.337336
  H       3.121809     -1.573034     -1.333440
  H       2.680319      0.050654     -0.715378
  H       5.356853     -2.347654     -1.124584
  H       7.784539     -1.949898     -0.604157
  H       8.629554      0.397189     -0.241578
  H       7.042227      2.345325     -0.424166
  H       3.662454      2.185527     -0.241179
  H       6.664553      5.860219     -2.997353
  H       5.903361      7.427124     -1.164888
  H       4.444140      6.553802      0.715722
30
Coordinates from ORCA-job Diclofenac\Diclofenac_PBE_STO-3G\Diclofenac_PBE_STO-3G.orcainp E -1645.069551781901
  O       3.056891      1.382255     -3.160154
  C       2.914172      0.008919     -2.915568
  O       2.433464     -0.770347     -3.789176
  C       3.346062     -0.495079     -1.437701
  C       4.821989     -0.246058     -1.096597
  C       5.745357     -1.319081     -0.985345
  C       7.107026     -1.087298     -0.685454
  C       7.575217      0.230011     -0.480257
  C       6.682971      1.321793     -0.579706
  C       5.324787      1.081656     -0.890764
  N       4.324581      2.195929     -1.062902
  C       4.843552      3.574062     -1.080745
  C       5.649985      4.102239     -2.137277
  Cl      6.176516      3.009426     -3.480676
  C       6.042259      5.461758     -2.174170
  C       5.608997      6.343105     -1.155910
  C       4.787303      5.875687     -0.102379
  C       4.424270      4.511476     -0.082033
  Cl      3.360013      3.877418      1.248796
  H       3.574394      1.764392     -2.290219
  H       3.134934     -1.581520     -1.384922
  H       2.691342      0.021157     -0.701324
  H       5.377812     -2.349839     -1.138130
  H       7.804811     -1.939918     -0.607386
  H       8.636307      0.414037     -0.235310
  H       7.030948      2.355941     -0.412193
  H       3.645522      2.171375     -0.233558
  H       6.671951      5.820868     -3.007654
  H       5.907654      7.406526     -1.187355
  H       4.435249      6.552308      0.696561
30
Coordinates from ORCA-job Diclofenac\Diclofenac_PBE_STO-3G\Diclofenac_PBE_STO-3G.orcainp E -1645.069712527231
  O       3.050923      1.378928     -3.175703
  C       2.936021      0.007946     -2.924940
  O       2.460163     -0.788029     -3.787210
  C       3.355186     -0.471273     -1.441147
  C       4.830875     -0.236174     -1.100192
  C       5.749325     -1.314624     -0.999052
  C       7.112522     -1.089712     -0.698350
  C       7.584012      0.225857     -0.482105
  C       6.690847      1.318962     -0.567857
  C       5.331199      1.084522     -0.881054
  N       4.323349      2.191791     -1.036032
  C       4.826801      3.572809     -1.069116
  C       5.637038      4.084042     -2.130308
  Cl      6.159014      2.978228     -3.460199
  C       6.038879      5.441364     -2.173232
  C       5.609300      6.331811     -1.161104
  C       4.779331      5.876547     -0.108294
  C       4.405124      4.514706     -0.076923
  Cl      3.336086      3.901036      1.253231
  H       3.528060      1.802688     -2.303503
  H       3.132337     -1.554358     -1.367740
  H       2.701285      0.060877     -0.714877
  H       5.381387     -2.343411     -1.162541
  H       7.808339     -1.944571     -0.630129
  H       8.646447      0.406547     -0.241519
  H       7.045420      2.349248     -0.390526
  H       3.654146      2.158585     -0.200172
  H       6.675827      5.792950     -3.004270
  H       5.917290      7.392033     -1.197057
  H       4.429806      6.563875      0.682412
30
Coordinates from ORCA-job Diclofenac\Diclofenac_PBE_STO-3G\Diclofenac_PBE_STO-3G.orcainp E -1645.069875266042
  O       3.041205      1.347343     -3.177949
  C       2.904477     -0.016587     -2.912919
  O       2.451924     -0.824399     -3.776396
  C       3.347988     -0.485844     -1.433239
  C       4.825458     -0.235607     -1.107999
  C       5.746835     -1.310980     -0.999455
  C       7.108748     -1.082126     -0.698667
  C       7.577449      0.234489     -0.487317
  C       6.683707      1.325756     -0.582065
  C       5.325994      1.089154     -0.899968
  N       4.323087      2.202045     -1.061232
  C       4.836286      3.581577     -1.077719
  C       5.654911      4.099214     -2.129411
  Cl      6.177457      3.005081     -3.468358
  C       6.057751      5.456290     -2.160833
  C       5.622792      6.339779     -1.145466
  C       4.786216      5.878526     -0.101184
  C       4.410192      4.517196     -0.082054
  Cl      3.333287      3.894827      1.237504
  H       3.516839      1.765012     -2.300082
  H       3.136828     -1.570668     -1.354497
  H       2.697501      0.043502     -0.702260
  H       5.380463     -2.341710     -1.153057
  H       7.805250     -1.935592     -0.622620
  H       8.638517      0.417744     -0.243473
  H       7.036672      2.357275     -0.409650
  H       3.646033      2.167845     -0.232199
  H       6.698165      5.813500     -2.986617
  H       5.931532      7.399984     -1.172486
  H       4.432777      6.560578      0.692157
30
Coordinates from ORCA-job Diclofenac\Diclofenac_PBE_STO-3G\Diclofenac_PBE_STO-3G.orcainp E -1645.069927797115
  O       3.047683      1.366550     -3.176761
  C       2.914843     -0.001201     -2.924591
  O       2.439386     -0.796648     -3.787246
  C       3.352415     -0.488110     -1.446233
  C       4.827214     -0.238573     -1.106987
  C       5.748652     -1.313689     -0.995202
  C       7.108376     -1.085077     -0.684959
  C       7.575646      0.231050     -0.467651
  C       6.682940      1.322746     -0.566396
  C       5.327411      1.085900     -0.891979
  N       4.323544      2.198963     -1.056993
  C       4.838449      3.578645     -1.077704
  C       5.641516      4.099189     -2.140316
  Cl      6.143705      3.007018     -3.489759
  C       6.039908      5.457317     -2.177183
  C       5.616491      6.338992     -1.155313
  C       4.796123      5.875399     -0.099386
  C       4.424015      4.513142     -0.076234
  Cl      3.367490      3.884674      1.258188
  H       3.535920      1.773363     -2.300104
  H       3.142828     -1.574175     -1.383234
  H       2.696802      0.031490     -0.712829
  H       5.383433     -2.344040     -1.154565
  H       7.804524     -1.938704     -0.606318
  H       8.634956      0.413727     -0.215475
  H       7.033778      2.354137     -0.388987
  H       3.648542      2.168092     -0.225603
  H       6.666443      5.816790     -3.012667
  H       5.921307      7.400359     -1.186522
  H       4.452000      6.555875      0.699497
30
Coordinates from ORCA-job Diclofenac\Diclofenac_PBE_STO-3G\Diclofenac_PBE_STO-3G.orcainp E -1645.069937925645
  O       3.045498      1.368708     -3.173066
  C       2.910450      0.001422     -2.919924
  O       2.435485     -0.794713     -3.782340
  C       3.352779     -0.486858     -1.443626
  C       4.827965     -0.237257     -1.107505
  C       5.751011     -1.311540     -1.000176
  C       7.111394     -1.081674     -0.693290
  C       7.577585      0.234992     -0.475352
  C       6.682637      1.325442     -0.569273
  C       5.326392      1.086862     -0.890880
  N       4.319592      2.197519     -1.052552
  C       4.833128      3.577330     -1.074457
  C       5.644629      4.091794     -2.133564
  Cl      6.160365      2.990358     -3.470056
  C       6.047086      5.448691     -2.171857
  C       5.618442      6.334781     -1.155862
  C       4.789920      5.876741     -0.103838
  C       4.414558      4.515262     -0.077726
  Cl      3.347322      3.894490      1.251399
  H       3.532935      1.777774     -2.297199
  H       3.143817     -1.573120     -1.381181
  H       2.698820      0.031634     -0.707908
  H       5.387110     -2.342143     -1.160945
  H       7.808974     -1.934485     -0.618570
  H       8.637532      0.418966     -0.226793
  H       7.033194      2.357122     -0.392432
  H       3.646935      2.164903     -0.219551
  H       6.681966      5.803809     -3.002909
  H       5.926571      7.395137     -1.188142
  H       4.442247      6.561253      0.690063
30
Coordinates from ORCA-job Diclofenac\Diclofenac_PBE_STO-3G\Diclofenac_PBE_STO-3G.orcainp E -1645.069941770849
  O       3.045286      1.366652     -3.174315
  C       2.909621     -0.000174     -2.920883
  O       2.433664     -0.796835     -3.782266
  C       3.353251     -0.487426     -1.444876
  C       4.828297     -0.236983     -1.108934
  C       5.751152     -1.311403     -1.000697
  C       7.111071     -1.081855     -0.691683
  C       7.576969      0.234654     -0.472136
  C       6.682226      1.325164     -0.567057
  C       5.326575      1.087099     -0.891680
  N       4.320370      2.198397     -1.053769
  C       4.834102      3.578175     -1.075286
  C       5.643995      4.093421     -2.135408
  Cl      6.154868      2.994241     -3.475451
  C       6.046140      5.450421     -2.173136
  C       5.619112      6.335508     -1.155576
  C       4.792114      5.876554     -0.102831
  C       4.416471      4.515104     -0.077388
  Cl      3.351933      3.892976      1.252969
  H       3.531203      1.775706     -2.297393
  H       3.145039     -1.573807     -1.382058
  H       2.699043      0.030764     -0.709137
  H       5.387470     -2.342004     -1.161954
  H       7.808393     -1.934806     -0.616132
  H       8.636455      0.418442     -0.221511
  H       7.032837      2.356571     -0.388843
  H       3.646611      2.165483     -0.221719
  H       6.679216      5.806706     -3.005064
  H       5.927081      7.395918     -1.187403
  H       4.445773      6.560535      0.692107
30
Coordinates from ORCA-job Diclofenac\Diclofenac_PBE_STO-3G\Diclofenac_PBE_STO-3G.orcainp E -1645.069942463382
  O       3.044887      1.367729     -3.174027
  C       2.908491      0.000830     -2.921346
  O       2.430343     -0.794892     -3.782349
  C       3.353806     -0.488328     -1.446256
  C       4.828563     -0.237063     -1.109580
  C       5.751767     -1.311223     -1.001254
  C       7.111353     -1.081457     -0.691072
  C       7.576692      0.235057     -0.470372
  C       6.681737      1.325343     -0.565513
  C       5.326433      1.087049     -0.891293
  N       4.320173      2.198412     -1.053369
  C       4.834306      3.578100     -1.075003
  C       5.643612      4.093077     -2.135799
  Cl      6.153459      2.993499     -3.475929
  C       6.045650      5.450046     -2.174106
  C       5.619209      6.335289     -1.156409
  C       4.793033      5.876586     -0.102989
  C       4.417378      4.515129     -0.076944
  Cl      3.353847      3.893150      1.254283
  H       3.531446      1.775863     -2.296895
  H       3.146766     -1.575025     -1.385403
  H       2.699183      0.027949     -0.709534
  H       5.388585     -2.341875     -1.163318
  H       7.808836     -1.934272     -0.615454
  H       8.635870      0.419033     -0.218593
  H       7.031981      2.356730     -0.386487
  H       3.646485      2.165536     -0.221283
  H       6.678063      5.806367     -3.006522
  H       5.927058      7.395725     -1.188691
  H       4.447329      6.560835      0.691997
