33
Coordinates from ORCA-job Dexketoprofen\Dexketoprofen_PBE_STO-3G\Dexketoprofen_PBE_STO-3G.orcainp E -832.137509753200
  H       1.096620     -0.204250      0.326760
  C       2.137970     -0.111080     -0.010520
  C       2.126490      0.628040     -1.353530
  C       2.826660      0.751010      1.050360
  O       3.428370      0.075300      2.055840
  O       2.792360      1.973800      1.053180
  C       2.717610     -1.512460     -0.178170
  C       1.934000     -2.645630      0.113490
  C       2.467640     -3.936280     -0.026370
  C       3.771140     -4.099040     -0.505320
  C       4.554480     -2.984060     -0.794800
  C       4.035830     -1.700720     -0.623710
  C       1.687330     -5.163750      0.284290
  O       1.872990     -6.170870     -0.395240
  C       0.709640     -5.216690      1.402780
  C       0.854150     -4.432050      2.553800
  C      -0.089410     -4.514770      3.579380
  C      -1.163440     -5.397910      3.472030
  C      -1.292130     -6.207760      2.344340
  C      -0.355680     -6.121550      1.313020
  H       1.607840      1.589440     -1.266130
  H       1.616620      0.042150     -2.125850
  H       3.141630      0.843600     -1.706810
  H       3.413980     -0.896960      1.965340
  H       0.900040     -2.519110      0.430070
  H       4.177980     -5.098100     -0.655070
  H       5.569680     -3.118220     -1.162310
  H       4.671990     -0.847090     -0.857040
  H       1.702840     -3.767060      2.680650
  H       0.018440     -3.899190      4.469450
  H      -1.893260     -5.465960      4.274870
  H      -2.118240     -6.910830      2.269520
  H      -0.455990     -6.765520      0.440940
33
Coordinates from ORCA-job Dexketoprofen\Dexketoprofen_PBE_STO-3G\Dexketoprofen_PBE_STO-3G.orcainp E -832.167930662016
  H       1.070501     -0.229472      0.332822
  C       2.122597     -0.108373     -0.012216
  C       2.087813      0.663400     -1.363983
  C       2.833589      0.774604      1.095376
  O       3.475364      0.074775      2.114944
  O       2.796335      2.031855      1.121015
  C       2.731046     -1.515652     -0.186610
  C       1.961312     -2.671963      0.105167
  C       2.510298     -3.971514     -0.045915
  C       3.834972     -4.113063     -0.529800
  C       4.610276     -2.972197     -0.817387
  C       4.066047     -1.683228     -0.639476
  C       1.712619     -5.242786      0.253705
  O       1.903184     -6.292203     -0.440832
  C       0.699420     -5.250246      1.398734
  C       0.843028     -4.426443      2.544824
  C      -0.110500     -4.480468      3.583666
  C      -1.205181     -5.366992      3.494632
  C      -1.340352     -6.210488      2.370604
  C      -0.390579     -6.155622      1.330362
  H       1.552124      1.624498     -1.249066
  H       1.571923      0.073387     -2.143691
  H       3.107801      0.891024     -1.724925
  H       3.430355     -0.938723      1.940325
  H       0.913488     -2.557411      0.433583
  H       4.256590     -5.122179     -0.682788
  H       5.643328     -3.089130     -1.188095
  H       4.691915     -0.803028     -0.868726
  H       1.709885     -3.751397      2.648517
  H       0.003437     -3.834179      4.471211
  H      -1.949302     -5.409428      4.309087
  H      -2.186458     -6.916495      2.307128
  H      -0.490703     -6.824431      0.457047
33
Coordinates from ORCA-job Dexketoprofen\Dexketoprofen_PBE_STO-3G\Dexketoprofen_PBE_STO-3G.orcainp E -832.171532534801
  H       1.067064     -0.257573      0.367338
  C       2.111965     -0.121972      0.002242
  C       2.053656      0.671097     -1.343333
  C       2.853169      0.759439      1.116656
  O       3.534732      0.038655      2.121822
  O       2.838979      2.021925      1.153598
  C       2.737213     -1.525053     -0.175180
  C       1.988030     -2.691091      0.140516
  C       2.542655     -3.989701     -0.029670
  C       3.865244     -4.117685     -0.539190
  C       4.625070     -2.965805     -0.843472
  C       4.068492     -1.678769     -0.658751
  C       1.740705     -5.276278      0.257995
  O       1.939533     -6.336084     -0.427349
  C       0.697612     -5.250567      1.391975
  C       0.810493     -4.383453      2.515140
  C      -0.147698     -4.432268      3.554271
  C      -1.230090     -5.342392      3.481570
  C      -1.344487     -6.217795      2.373621
  C      -0.383292     -6.175895      1.339507
  H       1.536452      1.638095     -1.193199
  H       1.503654      0.093231     -2.110065
  H       3.070303      0.878222     -1.727883
  H       3.432199     -0.959989      1.863514
  H       0.949730     -2.585092      0.504497
  H       4.291032     -5.126273     -0.693170
  H       5.655362     -3.070687     -1.228427
  H       4.675365     -0.786919     -0.898907
  H       1.659657     -3.680816      2.591624
  H      -0.051170     -3.758422      4.424477
  H      -1.981641     -5.373984      4.291077
  H      -2.182951     -6.935200      2.318725
  H      -0.460867     -6.864470      0.477672
33
Coordinates from ORCA-job Dexketoprofen\Dexketoprofen_PBE_STO-3G\Dexketoprofen_PBE_STO-3G.orcainp E -832.172150109654
  H       1.052906     -0.240791      0.294054
  C       2.106485     -0.106469     -0.045175
  C       2.092843      0.690626     -1.389990
  C       2.829088      0.774115      1.091866
  O       3.463530      0.032475      2.130370
  O       2.811894      2.035693      1.144103
  C       2.738615     -1.510821     -0.187293
  C       1.987291     -2.673209      0.138550
  C       2.543147     -3.975000     -0.007695
  C       3.868776     -4.107957     -0.511445
  C       4.632389     -2.960095     -0.822709
  C       4.074692     -1.670500     -0.660419
  C       1.726746     -5.263860      0.258874
  O       1.917001     -6.315253     -0.438995
  C       0.687908     -5.243105      1.403933
  C       0.837323     -4.435134      2.567739
  C      -0.108154     -4.511016      3.616867
  C      -1.215731     -5.388231      3.515852
  C      -1.367032     -6.206166      2.368204
  C      -0.416038     -6.140916      1.326350
  H       1.609115      1.673904     -1.235607
  H       1.528025      0.130674     -2.159416
  H       3.121906      0.856291     -1.760568
  H       3.333068     -0.950030      1.812561
  H       0.944669     -2.561072      0.487174
  H       4.291463     -5.120667     -0.648605
  H       5.666526     -3.068968     -1.197109
  H       4.678225     -0.778393     -0.909084
  H       1.708486     -3.762794      2.662305
  H       0.020133     -3.885293      4.518719
  H      -1.956623     -5.440755      4.334422
  H      -2.226028     -6.897068      2.289698
  H      -0.516473     -6.783782      0.431708
33
Coordinates from ORCA-job Dexketoprofen\Dexketoprofen_PBE_STO-3G\Dexketoprofen_PBE_STO-3G.orcainp E -832.172332639574
  H       1.043523     -0.261816      0.301272
  C       2.096761     -0.120890     -0.034452
  C       2.088034      0.697564     -1.364600
  C       2.815111      0.742190      1.117650
  O       3.463418     -0.025028      2.134210
  O       2.827371      2.001465      1.173349
  C       2.734358     -1.520678     -0.188851
  C       1.995286     -2.687063      0.149133
  C       2.557097     -3.984098     -0.004163
  C       3.876254     -4.109444     -0.523669
  C       4.627435     -2.958242     -0.848264
  C       4.063559     -1.672937     -0.682905
  C       1.751214     -5.275616      0.275354
  O       1.945788     -6.330307     -0.410815
  C       0.698888     -5.239351      1.405837
  C       0.823228     -4.398653      2.547570
  C      -0.131682     -4.461822      3.587569
  C      -1.223666     -5.358146      3.498608
  C      -1.352158     -6.205619      2.370775
  C      -0.392001     -6.152598      1.338074
  H       1.631732      1.689164     -1.184149
  H       1.499175      0.165242     -2.135179
  H       3.116597      0.842992     -1.743510
  H       3.321874     -0.996516      1.787776
  H       0.960088     -2.580539      0.521255
  H       4.302430     -5.120069     -0.662787
  H       5.656953     -3.060783     -1.236048
  H       4.655952     -0.776524     -0.941040
  H       1.680438     -3.706630      2.627894
  H      -0.022810     -3.810296      4.473172
  H      -1.971656     -5.400905      4.310759
  H      -2.200676     -6.909751      2.301123
  H      -0.471744     -6.817869      0.458292
33
Coordinates from ORCA-job Dexketoprofen\Dexketoprofen_PBE_STO-3G\Dexketoprofen_PBE_STO-3G.orcainp E -832.172407819825
  H       1.037277     -0.265906      0.274509
  C       2.096410     -0.124215     -0.041413
  C       2.112600      0.711778     -1.359572
  C       2.795036      0.721432      1.134218
  O       3.399397     -0.063685      2.163605
  O       2.795135      1.978308      1.214427
  C       2.731742     -1.524242     -0.201132
  C       1.992185     -2.690176      0.137796
  C       2.553639     -3.986853     -0.015323
  C       3.872104     -4.113270     -0.534473
  C       4.623088     -2.963029     -0.861338
  C       4.060144     -1.677789     -0.696399
  C       1.749447     -5.276349      0.270846
  O       1.954497     -6.337367     -0.400564
  C       0.702468     -5.237488      1.404201
  C       0.823241     -4.381085      2.533802
  C      -0.128376     -4.438413      3.576748
  C      -1.212548     -5.344769      3.502464
  C      -1.337268     -6.207709      2.386467
  C      -0.380964     -6.159771      1.350352
  H       1.675963      1.709863     -1.166547
  H       1.517821      0.204008     -2.141864
  H       3.146102      0.843152     -1.729720
  H       3.270206     -1.030838      1.803375
  H       0.958086     -2.582926      0.512511
  H       4.297607     -5.124099     -0.672682
  H       5.651866     -3.066272     -1.250311
  H       4.652653     -0.781852     -0.954950
  H       1.674289     -3.680300      2.601723
  H      -0.023076     -3.774150      4.453018
  H      -1.957716     -5.383127      4.317125
  H      -2.179822     -6.919704      2.328883
  H      -0.457062     -6.836725      0.479460
33
Coordinates from ORCA-job Dexketoprofen\Dexketoprofen_PBE_STO-3G\Dexketoprofen_PBE_STO-3G.orcainp E -832.172451595145
  H       1.024978     -0.264908      0.227496
  C       2.091646     -0.122450     -0.061941
  C       2.139587      0.726495     -1.370521
  C       2.760430      0.711664      1.138878
  O       3.332865     -0.083902      2.177008
  O       2.765794      1.967571      1.226080
  C       2.727710     -1.522675     -0.217573
  C       1.987588     -2.687758      0.124570
  C       2.551654     -3.984757     -0.017684
  C       3.871279     -4.112690     -0.532672
  C       4.622599     -2.963545     -0.862764
  C       4.058528     -1.678000     -0.705464
  C       1.750309     -5.273776      0.275911
  O       1.948477     -6.333250     -0.400088
  C       0.708042     -5.236873      1.412984
  C       0.841928     -4.396140      2.552891
  C      -0.108212     -4.454909      3.597259
  C      -1.202740     -5.347777      3.514563
  C      -1.338863     -6.197319      2.389719
  C      -0.384446     -6.147875      1.351877
  H       1.721467      1.731133     -1.169847
  H       1.543758      0.241439     -2.166210
  H       3.179549      0.843287     -1.727183
  H       3.214730     -1.048831      1.809525
  H       0.950420     -2.579407      0.489515
  H       4.297735     -5.123923     -0.664618
  H       5.652545     -3.067988     -1.248126
  H       4.651487     -0.782972     -0.965725
  H       1.702844     -3.708898      2.628964
  H       0.006719     -3.802795      4.481327
  H      -1.946369     -5.387371      4.330498
  H      -2.188757     -6.899974      2.326774
  H      -0.469114     -6.814394      0.473819
33
Coordinates from ORCA-job Dexketoprofen\Dexketoprofen_PBE_STO-3G\Dexketoprofen_PBE_STO-3G.orcainp E -832.172469350266
  H       1.024138     -0.269478      0.228589
  C       2.090531     -0.124915     -0.061167
  C       2.136490      0.730424     -1.365562
  C       2.759518      0.705793      1.143128
  O       3.339219     -0.092240      2.174895
  O       2.764474      1.961726      1.234392
  C       2.727402     -1.524360     -0.220379
  C       1.989722     -2.689955      0.126001
  C       2.554708     -3.986743     -0.016289
  C       3.873680     -4.113863     -0.533607
  C       4.622890     -2.964094     -0.867146
  C       4.057384     -1.678907     -0.710972
  C       1.754448     -5.276498      0.278913
  O       1.957678     -6.338857     -0.391875
  C       0.709533     -5.237375      1.413989
  C       0.838181     -4.390287      2.550027
  C      -0.114612     -4.446309      3.592315
  C      -1.206617     -5.342668      3.511278
  C      -1.337607     -6.198385      2.390295
  C      -0.380450     -6.151795      1.354709
  H       1.728185      1.737252     -1.155432
  H       1.531049      0.255213     -2.159937
  H       3.174792      0.841627     -1.728738
  H       3.222627     -1.055176      1.801010
  H       0.952960     -2.582252      0.492583
  H       4.300856     -5.124926     -0.665143
  H       5.652328     -3.067790     -1.254361
  H       4.648766     -0.783442     -0.973579
  H       1.696960     -3.699998      2.624403
  H      -0.003899     -3.789189      4.473325
  H      -1.952517     -5.379899      4.325384
  H      -2.185734     -6.903449      2.328666
  H      -0.460912     -6.822753      0.479527
33
Coordinates from ORCA-job Dexketoprofen\Dexketoprofen_PBE_STO-3G\Dexketoprofen_PBE_STO-3G.orcainp E -832.172475225940
  H       1.023705     -0.279142      0.233734
  C       2.088990     -0.130568     -0.058361
  C       2.128936      0.732900     -1.357360
  C       2.759282      0.697440      1.148823
  O       3.351486     -0.101094      2.171880
  O       2.752303      1.953199      1.248917
  C       2.728371     -1.528065     -0.222601
  C       1.996103     -2.694976      0.131758
  C       2.563183     -3.990911     -0.011757
  C       3.879447     -4.115874     -0.537023
  C       4.623261     -2.964772     -0.878731
  C       4.055292     -1.680547     -0.722180
  C       1.767620     -5.282348      0.290291
  O       1.971747     -6.346842     -0.377904
  C       0.714821     -5.237726      1.418376
  C       0.834227     -4.382793      2.549773
  C      -0.125660     -4.433679      3.586000
  C      -1.215984     -5.332192      3.503031
  C      -1.338113     -6.195280      2.386499
  C      -0.373776     -6.153981      1.357233
  H       1.736644      1.743176     -1.133043
  H       1.506922      0.272241     -2.147482
  H       3.163612      0.835137     -1.733408
  H       3.241898     -1.062448      1.790780
  H       0.961326     -2.589002      0.504771
  H       4.308317     -5.126262     -0.668830
  H       5.650482     -3.066693     -1.272496
  H       4.642569     -0.784256     -0.991455
  H       1.691351     -3.690357      2.625377
  H      -0.022148     -3.770640      4.463552
  H      -1.967792     -5.365022      4.312004
  H      -2.185072     -6.901762      2.323490
  H      -0.447182     -6.830432      0.485585
33
Coordinates from ORCA-job Dexketoprofen\Dexketoprofen_PBE_STO-3G\Dexketoprofen_PBE_STO-3G.orcainp E -832.172480568997
  H       1.021930     -0.277080      0.225318
  C       2.088658     -0.129180     -0.061706
  C       2.135441      0.736392     -1.358974
  C       2.753857      0.697300      1.149679
  O       3.348124     -0.101239      2.170898
  O       2.744363      1.953044      1.251351
  C       2.727689     -1.526888     -0.224167
  C       1.993776     -2.693210      0.128944
  C       2.560064     -3.989627     -0.013134
  C       3.877077     -4.115737     -0.536378
  C       4.622262     -2.965365     -0.877367
  C       4.055196     -1.680612     -0.721752
  C       1.763355     -5.280558      0.287687
  O       1.973414     -6.347099     -0.375466
  C       0.712767     -5.237749      1.417892
  C       0.833327     -4.383437      2.549637
  C      -0.124478     -4.436126      3.587693
  C      -1.213861     -5.335909      3.506255
  C      -1.337019     -6.198482      2.389467
  C      -0.374726     -6.155370      1.358368
  H       1.749578      1.748699     -1.132403
  H       1.511218      0.281778     -2.150843
  H       3.171088      0.833209     -1.733881
  H       3.241910     -1.062640      1.788761
  H       0.958494     -2.586304      0.500186
  H       4.305450     -5.126464     -0.667132
  H       5.649912     -3.068251     -1.269704
  H       4.643648     -0.785033     -0.990857
  H       1.689864     -3.690204      2.624377
  H      -0.020044     -3.773622      4.465522
  H      -1.964050     -5.370211      4.316648
  H      -2.183126     -6.906069      2.327740
  H      -0.448987     -6.831524      0.486579
33
Coordinates from ORCA-job Dexketoprofen\Dexketoprofen_PBE_STO-3G\Dexketoprofen_PBE_STO-3G.orcainp E -832.172482140817
  H       1.021705     -0.276052      0.224681
  C       2.088517     -0.128698     -0.062123
  C       2.136082      0.735471     -1.360360
  C       2.753393      0.698892      1.148457
  O       3.349908     -0.098556      2.169321
  O       2.740487      1.954501      1.250425
  C       2.727608     -1.526514     -0.223522
  C       1.993348     -2.692757      0.128913
  C       2.559440     -3.989160     -0.013092
  C       3.876568     -4.115409     -0.535978
  C       4.622226     -2.965189     -0.876061
  C       4.055385     -1.680360     -0.720359
  C       1.762817     -5.280041      0.287659
  O       1.971887     -6.345970     -0.376466
  C       0.712391     -5.237575      1.417930
  C       0.834339     -4.385467      2.551107
  C      -0.123032     -4.438937      3.589448
  C      -1.213366     -5.337394      3.506986
  C      -1.337945     -6.197775      2.388737
  C      -0.376077     -6.153885      1.357311
  H       1.748870      1.747630     -1.135505
  H       1.513337      0.279154     -2.152407
  H       3.172094      0.832604     -1.734067
  H       3.244271     -1.060313      1.788055
  H       0.958082     -2.585744      0.500087
  H       4.304794     -5.126181     -0.666779
  H       5.650034     -3.068212     -1.267895
  H       4.644333     -0.784919     -0.988727
  H       1.691598     -3.693282      2.626802
  H      -0.017437     -3.778133      4.468390
  H      -1.963122     -5.372429      4.317714
  H      -2.184800     -6.904356      2.326093
  H      -0.451568     -6.828516      0.484466
33
Coordinates from ORCA-job Dexketoprofen\Dexketoprofen_PBE_STO-3G\Dexketoprofen_PBE_STO-3G.orcainp E -832.172483131900
  H       1.020683     -0.276424      0.223053
  C       2.087820     -0.129108     -0.062411
  C       2.137066      0.735525     -1.360344
  C       2.750876      0.698724      1.149076
  O       3.353879     -0.097806      2.166744
  O       2.730259      1.953950      1.254184
  C       2.727340     -1.526743     -0.223440
  C       1.993369     -2.693124      0.129132
  C       2.559545     -3.989372     -0.012845
  C       3.876484     -4.115493     -0.536308
  C       4.621916     -2.965276     -0.876555
  C       4.055015     -1.680467     -0.720668
  C       1.763784     -5.280434      0.288929
  O       1.973284     -6.346604     -0.374460
  C       0.712607     -5.237489      1.418442
  C       0.834713     -4.386094      2.552076
  C      -0.122988     -4.439456      3.590079
  C      -1.213879     -5.337125      3.506868
  C      -1.338666     -6.196757      2.388109
  C      -0.376444     -6.152991      1.357024
  H       1.751208      1.748060     -1.134837
  H       1.513902      0.280467     -2.152782
  H       3.173334      0.831282     -1.733648
  H       3.251383     -1.059336      1.784049
  H       0.958331     -2.586230      0.500928
  H       4.304721     -5.126239     -0.667216
  H       5.649589     -3.068199     -1.268732
  H       4.644009     -0.785094     -0.989144
  H       1.692301     -3.694425      2.628494
  H      -0.017172     -3.779194      4.469390
  H      -1.963835     -5.372168      4.317390
  H      -2.185961     -6.902725      2.324754
  H      -0.452302     -6.827201      0.483909
33
Coordinates from ORCA-job Dexketoprofen\Dexketoprofen_PBE_STO-3G\Dexketoprofen_PBE_STO-3G.orcainp E -832.172483503543
  H       1.019419     -0.277350      0.220483
  C       2.087071     -0.129763     -0.062838
  C       2.138536      0.736154     -1.359882
  C       2.747304      0.697532      1.150633
  O       3.355417     -0.098907      2.165281
  O       2.720279      1.952310      1.259243
  C       2.727015     -1.527136     -0.223870
  C       1.993375     -2.693664      0.128967
  C       2.559698     -3.989813     -0.012955
  C       3.876540     -4.115770     -0.536805
  C       4.621665     -2.965459     -0.877344
  C       4.054600     -1.680707     -0.721369
  C       1.764556     -5.281014      0.289659
  O       1.974804     -6.347692     -0.372643
  C       0.712959     -5.237484      1.418760
  C       0.835239     -4.386030      2.552321
  C      -0.122646     -4.438833      3.590177
  C      -1.213965     -5.335966      3.506884
  C      -1.338966     -6.195614      2.388165
  C      -0.376523     -6.152451      1.357244
  H       1.753051      1.748649     -1.133574
  H       1.516026      0.282383     -2.153552
  H       3.175313      0.831627     -1.731773
  H       3.256328     -1.059829      1.780151
  H       0.958405     -2.586915      0.501016
  H       4.304834     -5.126504     -0.667753
  H       5.649237     -3.068216     -1.269825
  H       4.643498     -0.785355     -0.990048
  H       1.693100     -3.694711      2.628856
  H      -0.016629     -3.778529      4.469429
  H      -1.964064     -5.370580      4.317288
  H      -2.186599     -6.901165      2.324674
  H      -0.452706     -6.826769      0.484239
