33
Coordinates from ORCA-job Dexketoprofen\Dexketoprofen_B3LYP_6-311+G\Dexketoprofen_B3LYP_6-311+G.orcainp E -843.582810810045
  H       1.096620     -0.204250      0.326760
  C       2.137970     -0.111080     -0.010520
  C       2.126490      0.628040     -1.353530
  C       2.826660      0.751010      1.050360
  O       3.428370      0.075300      2.055840
  O       2.792360      1.973800      1.053180
  C       2.717610     -1.512460     -0.178170
  C       1.934000     -2.645630      0.113490
  C       2.467640     -3.936280     -0.026370
  C       3.771140     -4.099040     -0.505320
  C       4.554480     -2.984060     -0.794800
  C       4.035830     -1.700720     -0.623710
  C       1.687330     -5.163750      0.284290
  O       1.872990     -6.170870     -0.395240
  C       0.709640     -5.216690      1.402780
  C       0.854150     -4.432050      2.553800
  C      -0.089410     -4.514770      3.579380
  C      -1.163440     -5.397910      3.472030
  C      -1.292130     -6.207760      2.344340
  C      -0.355680     -6.121550      1.313020
  H       1.607840      1.589440     -1.266130
  H       1.616620      0.042150     -2.125850
  H       3.141630      0.843600     -1.706810
  H       3.413980     -0.896960      1.965340
  H       0.900040     -2.519110      0.430070
  H       4.177980     -5.098100     -0.655070
  H       5.569680     -3.118220     -1.162310
  H       4.671990     -0.847090     -0.857040
  H       1.702840     -3.767060      2.680650
  H       0.018440     -3.899190      4.469450
  H      -1.893260     -5.465960      4.274870
  H      -2.118240     -6.910830      2.269520
  H      -0.455990     -6.765520      0.440940
33
Coordinates from ORCA-job Dexketoprofen\Dexketoprofen_B3LYP_6-311+G\Dexketoprofen_B3LYP_6-311+G.orcainp E -843.585567393747
  H       1.113052     -0.264077      0.378616
  C       2.137098     -0.143852      0.005087
  C       2.054267      0.594705     -1.343800
  C       2.821010      0.732987      1.061321
  O       3.450303      0.104543      2.070417
  O       2.798013      1.943629      1.043952
  C       2.743473     -1.533771     -0.147473
  C       1.989396     -2.669481      0.174207
  C       2.515134     -3.956917     -0.005453
  C       3.813619     -4.107595     -0.506760
  C       4.579307     -2.984328     -0.806625
  C       4.048374     -1.706801     -0.629548
  C       1.721092     -5.189640      0.284164
  O       1.885734     -6.191369     -0.411620
  C       0.717140     -5.210493      1.388538
  C       0.854214     -4.411863      2.533010
  C      -0.083586     -4.494617      3.562240
  C      -1.172605     -5.359296      3.448252
  C      -1.315142     -6.157750      2.311396
  C      -0.370587     -6.090526      1.289833
  H       1.520830      1.541925     -1.238903
  H       1.524354     -0.011585     -2.081307
  H       3.047996      0.818589     -1.740538
  H       3.437221     -0.860809      1.984199
  H       0.972517     -2.548674      0.530247
  H       4.223564     -5.099125     -0.656832
  H       5.588387     -3.104699     -1.184509
  H       4.662886     -0.846307     -0.873874
  H       1.702750     -3.748494      2.649777
  H       0.032374     -3.883695      4.450609
  H      -1.907981     -5.412934      4.243977
  H      -2.158388     -6.833969      2.223684
  H      -0.479647     -6.717280      0.412959
33
Coordinates from ORCA-job Dexketoprofen\Dexketoprofen_B3LYP_6-311+G\Dexketoprofen_B3LYP_6-311+G.orcainp E -843.585677660433
  H       1.123997     -0.251123      0.329097
  C       2.149465     -0.131268     -0.040947
  C       2.071638      0.599315     -1.395715
  C       2.814046      0.750454      1.025287
  O       3.353020      0.141794      2.094996
  O       2.778678      1.956369      1.009833
  C       2.756596     -1.522939     -0.155105
  C       1.994675     -2.648391      0.166029
  C       2.509559     -3.942277      0.003919
  C       3.816771     -4.104846     -0.474231
  C       4.595389     -2.988727     -0.764615
  C       4.068100     -1.706707     -0.611671
  C       1.680654     -5.167356      0.250691
  O       1.860634     -6.170001     -0.438557
  C       0.695402     -5.198066      1.376755
  C       0.886640     -4.465698      2.558856
  C      -0.019506     -4.581436      3.611902
  C      -1.137887     -5.406189      3.484976
  C      -1.339284     -6.133841      2.308493
  C      -0.422086     -6.041009      1.267005
  H       1.544815      1.548503     -1.295522
  H       1.534228     -0.017569     -2.117314
  H       3.067211      0.803249     -1.795379
  H       3.318471     -0.822460      2.012725
  H       0.976241     -2.513900      0.507074
  H       4.220008     -5.100483     -0.603313
  H       5.612626     -3.115864     -1.114301
  H       4.686898     -0.849405     -0.851041
  H       1.755754     -3.831842      2.677648
  H       0.145056     -4.027037      4.528031
  H      -1.849956     -5.482949      4.298747
  H      -2.208347     -6.772950      2.206373
  H      -0.573338     -6.608922      0.358516
33
Coordinates from ORCA-job Dexketoprofen\Dexketoprofen_B3LYP_6-311+G\Dexketoprofen_B3LYP_6-311+G.orcainp E -843.586157598384
  H       1.121691     -0.263358      0.350289
  C       2.140513     -0.139095     -0.038155
  C       2.038104      0.586121     -1.392067
  C       2.813868      0.750131      1.015946
  O       3.368163      0.146305      2.083623
  O       2.837670      1.956828      0.957583
  C       2.756312     -1.526694     -0.153504
  C       2.006273     -2.657396      0.177074
  C       2.532584     -3.947607      0.022307
  C       3.836905     -4.101073     -0.467090
  C       4.603509     -2.979670     -0.768751
  C       4.066287     -1.701405     -0.619209
  C       1.713043     -5.177286      0.278317
  O       1.864933     -6.167158     -0.433286
  C       0.709439     -5.195922      1.388200
  C       0.902702     -4.487485      2.584269
  C      -0.019475     -4.598062      3.623722
  C      -1.153359     -5.396866      3.471477
  C      -1.356171     -6.101862      2.281303
  C      -0.424657     -6.013060      1.252784
  H       1.513333      1.535457     -1.282632
  H       1.484919     -0.036899     -2.097162
  H       3.026998      0.784689     -1.811394
  H       3.308307     -0.819600      2.012722
  H       0.990009     -2.529021      0.529926
  H       4.246929     -5.095526     -0.592637
  H       5.620403     -3.099029     -1.124157
  H       4.674212     -0.838029     -0.868324
  H       1.783874     -3.873182      2.719817
  H       0.147388     -4.061724      4.550706
  H      -1.875795     -5.472173      4.276600
  H      -2.238286     -6.719958      2.158661
  H      -0.574455     -6.563962      0.332282
33
Coordinates from ORCA-job Dexketoprofen\Dexketoprofen_B3LYP_6-311+G\Dexketoprofen_B3LYP_6-311+G.orcainp E -843.586296128492
  H       1.127699     -0.277936      0.392256
  C       2.140532     -0.152029     -0.012645
  C       2.018584      0.579907     -1.359454
  C       2.834181      0.730106      1.033789
  O       3.358808      0.115149      2.113163
  O       2.889528      1.937581      0.964910
  C       2.755194     -1.538703     -0.149224
  C       2.010395     -2.675182      0.179541
  C       2.540587     -3.961601      0.009878
  C       3.841781     -4.107927     -0.488717
  C       4.601536     -2.982164     -0.792004
  C       4.061532     -1.706638     -0.629908
  C       1.729392     -5.192260      0.276898
  O       1.892938     -6.191684     -0.416953
  C       0.719043     -5.197425      1.378190
  C       0.889387     -4.441518      2.547223
  C      -0.040068     -4.530534      3.582451
  C      -1.157341     -5.355881      3.451066
  C      -1.338364     -6.106253      2.285577
  C      -0.400325     -6.036851      1.261005
  H       1.500084      1.531280     -1.234118
  H       1.449493     -0.037370     -2.057896
  H       3.001504      0.776304     -1.794434
  H       3.268648     -0.849831      2.049618
  H       0.997637     -2.553473      0.548465
  H       4.253419     -5.101366     -0.624490
  H       5.615469     -3.095842     -1.159381
  H       4.663882     -0.838886     -0.880245
  H       1.756749     -3.802150      2.663009
  H       0.108361     -3.955724      4.489935
  H      -1.884788     -5.415824      4.253426
  H      -2.208327     -6.745080      2.179345
  H      -0.530982     -6.623765      0.358965
33
Coordinates from ORCA-job Dexketoprofen\Dexketoprofen_B3LYP_6-311+G\Dexketoprofen_B3LYP_6-311+G.orcainp E -843.586418318530
  H       1.131529     -0.269220      0.391926
  C       2.142530     -0.147152     -0.019239
  C       2.017314      0.577885     -1.368854
  C       2.845280      0.734641      1.021247
  O       3.315077      0.124059      2.129436
  O       2.958197      1.936108      0.922783
  C       2.754929     -1.535414     -0.150954
  C       2.006754     -2.671381      0.173240
  C       2.537508     -3.958268      0.007387
  C       3.841453     -4.105437     -0.483191
  C       4.604269     -2.980466     -0.781386
  C       4.064703     -1.704604     -0.622279
  C       1.722581     -5.187685      0.269045
  O       1.890078     -6.187894     -0.422137
  C       0.717394     -5.196514      1.375051
  C       0.900958     -4.455797      2.551718
  C      -0.022830     -4.549972      3.591594
  C      -1.147345     -5.364683      3.457328
  C      -1.341267     -6.100288      2.284538
  C      -0.408568     -6.026795      1.255444
  H       1.505725      1.533025     -1.244147
  H       1.439287     -0.040570     -2.058965
  H       2.998927      0.764762     -1.810505
  H       3.183004     -0.836889      2.084612
  H       0.991061     -2.548551      0.533112
  H       4.251716     -5.099722     -0.616731
  H       5.620300     -3.094589     -1.142792
  H       4.668197     -0.836628     -0.868833
  H       1.774979     -3.825831      2.668237
  H       0.136158     -3.987075      4.504766
  H      -1.870082     -5.428730      4.263606
  H      -2.216721     -6.731290      2.176739
  H      -0.546925     -6.602605      0.347441
33
Coordinates from ORCA-job Dexketoprofen\Dexketoprofen_B3LYP_6-311+G\Dexketoprofen_B3LYP_6-311+G.orcainp E -843.586545239707
  H       1.155064     -0.258771      0.422167
  C       2.151131     -0.143262     -0.026613
  C       1.987190      0.559688     -1.382128
  C       2.900668      0.736690      0.981156
  O       3.191372      0.170611      2.174512
  O       3.171462      1.902645      0.806073
  C       2.760587     -1.533761     -0.153081
  C       2.011955     -2.670517      0.168094
  C       2.548143     -3.956713      0.008504
  C       3.853489     -4.101177     -0.477427
  C       4.615920     -2.975222     -0.772405
  C       4.073963     -1.700782     -0.615201
  C       1.733168     -5.186472      0.270283
  O       1.885751     -6.180374     -0.432770
  C       0.726492     -5.194565      1.375787
  C       0.935861     -4.496410      2.574157
  C       0.012599     -4.595974      3.614099
  C      -1.136016     -5.371573      3.458352
  C      -1.354495     -6.066212      2.265110
  C      -0.422084     -5.990182      1.236125
  H       1.493002      1.523363     -1.252830
  H       1.375339     -0.064582     -2.036836
  H       2.954806      0.724413     -1.860583
  H       2.933849     -0.764624      2.187125
  H       0.992831     -2.548562      0.516319
  H       4.263079     -5.095882     -0.607814
  H       5.633828     -3.086381     -1.128998
  H       4.674183     -0.829714     -0.857783
  H       1.831116     -3.900558      2.703450
  H       0.192009     -4.066848      4.543438
  H      -1.857899     -5.439332      4.264959
  H      -2.248326     -6.667828      2.142613
  H      -0.573868     -6.534702      0.311385
33
Coordinates from ORCA-job Dexketoprofen\Dexketoprofen_B3LYP_6-311+G\Dexketoprofen_B3LYP_6-311+G.orcainp E -843.586742751959
  H       1.173578     -0.251546      0.463594
  C       2.156745     -0.141324     -0.013187
  C       1.962348      0.549505     -1.369928
  C       2.946319      0.736148      0.964222
  O       3.159354      0.213544      2.194333
  O       3.344426      1.852611      0.727702
  C       2.762191     -1.534224     -0.145495
  C       2.010113     -2.670985      0.166188
  C       2.545684     -3.956915      0.000478
  C       3.852022     -4.100817     -0.482153
  C       4.616692     -2.974315     -0.769743
  C       4.075933     -1.700303     -0.606151
  C       1.729139     -5.186178      0.257298
  O       1.897503     -6.186736     -0.433333
  C       0.725325     -5.198096      1.365488
  C       0.932996     -4.491136      2.559096
  C       0.011742     -4.589526      3.600990
  C      -1.132159     -5.373191      3.451540
  C      -1.348326     -6.077068      2.263342
  C      -0.418284     -6.001634      1.232013
  H       1.478509      1.518544     -1.237375
  H       1.329375     -0.075778     -2.003060
  H       2.918303      0.703805     -1.874466
  H       2.819463     -0.692572      2.253277
  H       0.990167     -2.549549      0.512228
  H       4.260107     -5.095690     -0.616308
  H       5.635347     -3.084644     -1.124446
  H       4.677511     -0.827957     -0.841184
  H       1.824710     -3.888559      2.681670
  H       0.188852     -4.052846      4.526420
  H      -1.852975     -5.439547      4.259237
  H      -2.238954     -6.684512      2.146571
  H      -0.567584     -6.552081      0.310383
33
Coordinates from ORCA-job Dexketoprofen\Dexketoprofen_B3LYP_6-311+G\Dexketoprofen_B3LYP_6-311+G.orcainp E -843.586847123836
  H       1.188336     -0.249599      0.497815
  C       2.160721     -0.141269      0.001244
  C       1.941513      0.538392     -1.357356
  C       2.981356      0.740046      0.947249
  O       3.166805      0.258229      2.197931
  O       3.446178      1.818862      0.664274
  C       2.767329     -1.534520     -0.134556
  C       2.015760     -2.670508      0.177515
  C       2.547963     -3.956436      0.001933
  C       3.852135     -4.100753     -0.487269
  C       4.616563     -2.974132     -0.775241
  C       4.077345     -1.700019     -0.604664
  C       1.732623     -5.186459      0.257000
  O       1.901441     -6.185868     -0.436227
  C       0.726273     -5.201615      1.362998
  C       0.925183     -4.488290      2.554495
  C       0.000364     -4.587428      3.593135
  C      -1.138680     -5.378212      3.442125
  C      -1.346331     -6.087722      2.255823
  C      -0.412878     -6.010914      1.227500
  H       1.460550      1.509790     -1.226604
  H       1.297463     -0.089823     -1.976183
  H       2.887892      0.689350     -1.881041
  H       2.772414     -0.621133      2.302570
  H       0.998202     -2.549339      0.530977
  H       4.259359     -5.095151     -0.627268
  H       5.632897     -3.084892     -1.136412
  H       4.678875     -0.828004     -0.841778
  H       1.812452     -3.879538      2.679758
  H       0.170077     -4.046179      4.517264
  H      -1.862939     -5.444663      4.246773
  H      -2.233239     -6.700405      2.137869
  H      -0.557832     -6.565369      0.307589
33
Coordinates from ORCA-job Dexketoprofen\Dexketoprofen_B3LYP_6-311+G\Dexketoprofen_B3LYP_6-311+G.orcainp E -843.586926051813
  H       1.209414     -0.252496      0.539055
  C       2.167185     -0.142660      0.017074
  C       1.911977      0.527109     -1.340245
  C       3.023460      0.740915      0.927099
  O       3.187479      0.305430      2.196688
  O       3.543682      1.780667      0.597976
  C       2.776217     -1.535294     -0.126138
  C       2.027788     -2.670034      0.193679
  C       2.555915     -3.956223      0.009453
  C       3.856028     -4.101177     -0.491879
  C       4.618158     -2.974666     -0.786244
  C       4.080324     -1.700201     -0.610765
  C       1.741864     -5.187276      0.263520
  O       1.910084     -6.184686     -0.433317
  C       0.728505     -5.203558      1.363307
  C       0.913415     -4.484518      2.553723
  C      -0.019000     -4.584835      3.585363
  C      -1.152508     -5.382854      3.428385
  C      -1.346577     -6.097479      2.242874
  C      -0.405442     -6.018977      1.221696
  H       1.433340      1.499637     -1.206937
  H       1.253377     -0.104681     -1.939964
  H       2.843948      0.675425     -1.889870
  H       2.738280     -0.540332      2.347532
  H       1.015011     -2.548696      0.560612
  H       4.262756     -5.094960     -0.636835
  H       5.631046     -3.086250     -1.156566
  H       4.680567     -0.829215     -0.854778
  H       1.795131     -3.869117      2.685816
  H       0.139648     -4.039514      4.508997
  H      -1.883014     -5.450223      4.227268
  H      -2.229104     -6.715389      2.119541
  H      -0.542784     -6.577440      0.303119
33
Coordinates from ORCA-job Dexketoprofen\Dexketoprofen_B3LYP_6-311+G\Dexketoprofen_B3LYP_6-311+G.orcainp E -843.586732821074
  H       1.284000     -0.256055      0.665998
  C       2.192705     -0.148037      0.066097
  C       1.826821      0.484952     -1.282504
  C       3.153100      0.739961      0.855912
  O       3.190606      0.531535      2.190487
  O       3.874912      1.585668      0.382449
  C       2.805587     -1.541204     -0.096906
  C       2.061152     -2.673392      0.233924
  C       2.577154     -3.960340      0.024902
  C       3.866897     -4.106744     -0.505419
  C       4.625474     -2.980787     -0.810162
  C       4.094404     -1.705062     -0.616802
  C       1.762897     -5.192554      0.272050
  O       1.926771     -6.182875     -0.436701
  C       0.734430     -5.213126      1.358191
  C       0.896841     -4.497956      2.554251
  C      -0.052220     -4.603789      3.569893
  C      -1.181679     -5.403890      3.391412
  C      -1.354042     -6.113685      2.199735
  C      -0.396027     -6.029137      1.194828
  H       1.362813      1.464587     -1.142802
  H       1.119216     -0.157436     -1.811463
  H       2.709438      0.612750     -1.912501
  H       2.553482     -0.140974      2.474700
  H       1.059663     -2.551226      0.630095
  H       4.269401     -5.099525     -0.666371
  H       5.629429     -3.094397     -1.203235
  H       4.691799     -0.836354     -0.875147
  H       1.773001     -3.879415      2.707302
  H       0.088739     -4.062342      4.498545
  H      -1.925518     -5.475620      4.177455
  H      -2.233084     -6.732614      2.058134
  H      -0.521990     -6.584490      0.272895
33
Coordinates from ORCA-job Dexketoprofen\Dexketoprofen_B3LYP_6-311+G\Dexketoprofen_B3LYP_6-311+G.orcainp E -843.586959608580
  H       1.231477     -0.258586      0.571994
  C       2.177154     -0.145428      0.031077
  C       1.893223      0.516239     -1.324517
  C       3.066269      0.735967      0.909805
  O       3.141542      0.394079      2.215227
  O       3.692664      1.695003      0.524050
  C       2.789358     -1.538069     -0.119245
  C       2.040022     -2.671303      0.202465
  C       2.561383     -3.958562      0.008902
  C       3.857434     -4.105783     -0.503786
  C       4.620194     -2.980581     -0.800584
  C       4.087765     -1.704446     -0.616546
  C       1.746038     -5.189005      0.262058
  O       1.909099     -6.183502     -0.440225
  C       0.731368     -5.206211      1.360778
  C       0.914260     -4.491758      2.554144
  C      -0.020037     -4.594496      3.583753
  C      -1.154448     -5.390637      3.422225
  C      -1.346983     -6.100342      2.233516
  C      -0.403742     -6.019201      1.214458
  H       1.418415      1.490661     -1.189074
  H       1.221344     -0.117710     -1.907219
  H       2.813292      0.658994     -1.895031
  H       2.592795     -0.378732      2.418396
  H       1.031734     -2.548184      0.580797
  H       4.261415     -5.099638     -0.655069
  H       5.629697     -3.094570     -1.179265
  H       4.688974     -0.835875     -0.865452
  H       1.795788     -3.877351      2.692229
  H       0.137336     -4.053105      4.509880
  H      -1.886326     -5.460147      4.219636
  H      -2.229935     -6.716699      2.105589
  H      -0.542400     -6.574590      0.294272
33
Coordinates from ORCA-job Dexketoprofen\Dexketoprofen_B3LYP_6-311+G\Dexketoprofen_B3LYP_6-311+G.orcainp E -843.586984167340
  H       1.211709     -0.263789      0.536370
  C       2.170761     -0.146826      0.019610
  C       1.921634      0.532441     -1.334029
  C       3.037577      0.721144      0.933399
  O       3.091277      0.350006      2.231820
  O       3.664982      1.691903      0.579323
  C       2.782153     -1.539179     -0.131795
  C       2.031737     -2.673377      0.186300
  C       2.555458     -3.960321     -0.001937
  C       3.853624     -4.107031     -0.508911
  C       4.616993     -2.981522     -0.802742
  C       4.083726     -1.705393     -0.621058
  C       1.740946     -5.190253      0.256137
  O       1.903993     -6.187664     -0.441675
  C       0.732792     -5.204577      1.360731
  C       0.923570     -4.486519      2.550612
  C      -0.004251     -4.585604      3.586448
  C      -1.139885     -5.381721      3.434771
  C      -1.340119     -6.095441      2.249717
  C      -0.403292     -6.018019      1.224429
  H       1.446370      1.506234     -1.196561
  H       1.261984     -0.092946     -1.939498
  H       2.855758      0.679084     -1.880088
  H       2.543897     -0.431151      2.404563
  H       1.021334     -2.550607      0.559015
  H       4.258716     -5.100949     -0.657161
  H       5.628406     -3.094961     -1.176545
  H       4.686411     -0.836561     -0.865645
  H       1.806338     -3.872123      2.680515
  H       0.159344     -4.040911      4.509596
  H      -1.866582     -5.448390      4.237156
  H      -2.223994     -6.712026      2.129471
  H      -0.547194     -6.576519      0.306901
33
Coordinates from ORCA-job Dexketoprofen\Dexketoprofen_B3LYP_6-311+G\Dexketoprofen_B3LYP_6-311+G.orcainp E -843.586987330488
  H       1.209588     -0.265069      0.533407
  C       2.169868     -0.147145      0.019318
  C       1.923881      0.535666     -1.333109
  C       3.036800      0.718195      0.936209
  O       3.088594      0.346085      2.234290
  O       3.666931      1.687761      0.583230
  C       2.781186     -1.539572     -0.134479
  C       2.031860     -2.674367      0.185448
  C       2.556157     -3.961177     -0.001755
  C       3.853995     -4.107478     -0.509627
  C       4.615935     -2.981733     -0.805967
  C       4.082099     -1.705618     -0.625428
  C       1.742340     -5.191327      0.257617
  O       1.906131     -6.189351     -0.439086
  C       0.733906     -5.205087      1.361943
  C       0.923340     -4.485350      2.551011
  C      -0.005435     -4.583234      3.586134
  C      -1.140525     -5.380151      3.434774
  C      -1.339149     -6.096020      2.250765
  C      -0.401471     -6.019607      1.226172
  H       1.448872      1.509311     -1.193756
  H       1.264958     -0.087898     -1.941249
  H       2.859126      0.683142     -1.876942
  H       2.537031     -0.432021      2.406558
  H       1.021200     -2.551953      0.557572
  H       4.259592     -5.101239     -0.657721
  H       5.626901     -3.094881     -1.181106
  H       4.684411     -0.836966     -0.871317
  H       1.805720     -3.870481      2.681085
  H       0.157028     -4.036882      4.508507
  H      -1.867904     -5.445863      4.236619
  H      -2.222441     -6.713466      2.130626
  H      -0.544356     -6.579791      0.309497
33
Coordinates from ORCA-job Dexketoprofen\Dexketoprofen_B3LYP_6-311+G\Dexketoprofen_B3LYP_6-311+G.orcainp E -843.586988635070
  H       1.209219     -0.266421      0.533342
  C       2.169437     -0.147812      0.019552
  C       1.923637      0.537065     -1.331891
  C       3.038860      0.715238      0.936617
  O       3.083998      0.348322      2.236330
  O       3.677278      1.678615      0.581495
  C       2.780914     -1.540149     -0.135708
  C       2.032790     -2.675399      0.185939
  C       2.557504     -3.962010     -0.001140
  C       3.854886     -4.107788     -0.510468
  C       4.615459     -2.981741     -0.808805
  C       4.081114     -1.705758     -0.628491
  C       1.744220     -5.192369      0.259095
  O       1.908471     -6.190758     -0.436917
  C       0.735202     -5.205552      1.362901
  C       0.923835     -4.485626      2.551978
  C      -0.005956     -4.582861      3.586275
  C      -1.141268     -5.379301      3.434139
  C      -1.339047     -6.095468      2.250161
  C      -0.400395     -6.019669      1.226427
  H       1.449542      1.510884     -1.190664
  H       1.263737     -0.085236     -1.940260
  H       2.858709      0.684404     -1.875914
  H       2.524343     -0.423502      2.410694
  H       1.022283     -2.553313      0.558588
  H       4.260963     -5.101379     -0.658427
  H       5.625927     -3.094375     -1.185476
  H       4.682661     -0.837051     -0.875920
  H       1.806405     -3.871202      2.682815
  H       0.155968     -4.036269      4.508602
  H      -1.869444     -5.444366      4.235315
  H      -2.222425     -6.712652      2.129266
  H      -0.542657     -6.580070      0.309790
33
Coordinates from ORCA-job Dexketoprofen\Dexketoprofen_B3LYP_6-311+G\Dexketoprofen_B3LYP_6-311+G.orcainp E -843.586989649364
  H       1.208737     -0.268330      0.532610
  C       2.169183     -0.148796      0.019723
  C       1.924577      0.538656     -1.330682
  C       3.041291      0.711058      0.937496
  O       3.071021      0.354819      2.240524
  O       3.695850      1.662442      0.579255
  C       2.781089     -1.541051     -0.136811
  C       2.034643     -2.676696      0.187487
  C       2.559418     -3.963117     -0.000392
  C       3.855741     -4.108447     -0.512695
  C       4.614688     -2.982111     -0.813613
  C       4.080044     -1.706252     -0.632841
  C       1.746691     -5.193628      0.260907
  O       1.911220     -6.192429     -0.434416
  C       0.737078     -5.206157      1.364207
  C       0.925443     -4.486889      2.553709
  C      -0.005368     -4.583552      3.587155
  C      -1.141451     -5.378639      3.433775
  C      -1.338953     -6.094181      2.249376
  C      -0.399287     -6.019032      1.226547
  H       1.451743      1.512826     -1.187425
  H       1.263664     -0.081898     -1.939755
  H       2.859804      0.685688     -1.874388
  H       2.497264     -0.405977      2.417676
  H       1.024804     -2.554869      0.562047
  H       4.262000     -5.101891     -0.661106
  H       5.624217     -3.094167     -1.192981
  H       4.680464     -0.837507     -0.882716
  H       1.808597     -3.873514      2.685574
  H       0.156479     -4.037451      4.509789
  H      -1.870407     -5.443101      4.234285
  H      -2.222834     -6.710420      2.127357
  H      -0.541281     -6.578955      0.309564
33
Coordinates from ORCA-job Dexketoprofen\Dexketoprofen_B3LYP_6-311+G\Dexketoprofen_B3LYP_6-311+G.orcainp E -843.586983015649
  H       1.209398     -0.272222      0.533059
  C       2.169722     -0.150990      0.021012
  C       1.926179      0.539876     -1.327941
  C       3.048141      0.703679      0.937786
  O       3.038170      0.380139      2.249378
  O       3.743476      1.622139      0.570255
  C       2.782852     -1.543075     -0.137442
  C       2.039316     -2.679085      0.192039
  C       2.563205     -3.965310      0.001003
  C       3.856980     -4.110231     -0.518196
  C       4.613445     -2.983593     -0.823475
  C       4.078999     -1.707793     -0.640624
  C       1.751065     -5.195875      0.263679
  O       1.915190     -6.194950     -0.431358
  C       0.740595     -5.207697      1.366251
  C       0.929799     -4.491804      2.557604
  C      -0.002439     -4.588217      3.589799
  C      -1.140885     -5.379311      3.433293
  C      -1.339312     -6.091328      2.246943
  C      -0.398181     -6.016683      1.225434
  H       1.455664      1.514829     -1.181645
  H       1.263048     -0.077883     -1.937474
  H       2.861249      0.686092     -1.871886
  H       2.429713     -0.351165      2.434783
  H       1.031342     -2.557418      0.571652
  H       4.262767     -5.103527     -0.668735
  H       5.620865     -3.094896     -1.208650
  H       4.677477     -0.839157     -0.895119
  H       1.814692     -3.881437      2.691946
  H       0.160310     -4.044880      4.513903
  H      -1.870928     -5.443301      4.232843
  H      -2.224916     -6.704546      2.122209
  H      -0.540826     -6.573946      0.306918
33
Coordinates from ORCA-job Dexketoprofen\Dexketoprofen_B3LYP_6-311+G\Dexketoprofen_B3LYP_6-311+G.orcainp E -843.586990507683
  H       1.208746     -0.268925      0.532162
  C       2.169369     -0.149192      0.019661
  C       1.925334      0.538435     -1.330772
  C       3.041365      0.710412      0.937635
  O       3.064228      0.358988      2.242077
  O       3.701824      1.657327      0.578365
  C       2.781541     -1.541358     -0.136625
  C       2.035389     -2.676911      0.188384
  C       2.559869     -3.963339     -0.000290
  C       3.855747     -4.108730     -0.513726
  C       4.614624     -2.982417     -0.814918
  C       4.080152     -1.706555     -0.633601
  C       1.747114     -5.193771      0.261112
  O       1.911525     -6.192637     -0.434174
  C       0.737497     -5.206258      1.364407
  C       0.926623     -4.488077      2.554430
  C      -0.004118     -4.584856      3.587925
  C      -1.140901     -5.378838      3.434002
  C      -1.339214     -6.093177      2.249020
  C      -0.399586     -6.018021      1.226146
  H       1.452539      1.512641     -1.187475
  H       1.264542     -0.081920     -1.940177
  H       2.860756      0.685566     -1.874106
  H       2.486259     -0.398440      2.419999
  H       1.025979     -2.555013      0.564062
  H       4.261684     -5.102215     -0.662701
  H       5.623870     -3.094433     -1.195045
  H       4.680343     -0.837790     -0.883931
  H       1.810296     -3.875489      2.686560
  H       0.158346     -4.039690      4.511003
  H      -1.869799     -5.443365      4.234561
  H      -2.223673     -6.708507      2.126592
  H      -0.542103     -6.577016      0.308677
33
Coordinates from ORCA-job Dexketoprofen\Dexketoprofen_B3LYP_6-311+G\Dexketoprofen_B3LYP_6-311+G.orcainp E -843.586991112861
  H       1.208949     -0.269442      0.532338
  C       2.169553     -0.149548      0.019884
  C       1.925539      0.538110     -1.330554
  C       3.041864      0.709976      0.937575
  O       3.059459      0.363039      2.243266
  O       3.707315      1.652887      0.576949
  C       2.781946     -1.541646     -0.136453
  C       2.036063     -2.677171      0.189160
  C       2.560333     -3.963595     -0.000133
  C       3.855841     -4.108987     -0.514517
  C       4.614575     -2.982670     -0.816058
  C       4.080228     -1.706808     -0.634299
  C       1.747597     -5.193994      0.261344
  O       1.911947     -6.192900     -0.433919
  C       0.737886     -5.206443      1.364556
  C       0.927469     -4.489053      2.554975
  C      -0.003344     -4.585844      3.588404
  C      -1.140665     -5.378959      3.433971
  C      -1.339461     -6.092436      2.248555
  C      -0.399739     -6.017346      1.225753
  H       1.452736      1.512321     -1.187200
  H       1.264745     -0.082169     -1.940033
  H       2.860962      0.685335     -1.873848
  H       2.477637     -0.391149      2.422354
  H       1.026973     -2.555268      0.565678
  H       4.261556     -5.102483     -0.663996
  H       5.623565     -3.094653     -1.196870
  H       4.680222     -0.838034     -0.885017
  H       1.811526     -3.877080      2.687416
  H       0.159477     -4.041351      4.511815
  H      -1.869620     -5.443478      4.234478
  H      -2.224362     -6.707051      2.125734
  H      -0.542601     -6.575679      0.307933
33
Coordinates from ORCA-job Dexketoprofen\Dexketoprofen_B3LYP_6-311+G\Dexketoprofen_B3LYP_6-311+G.orcainp E -843.586957922541
  H       1.211086     -0.274846      0.533974
  C       2.171728     -0.153316      0.022608
  C       1.928762      0.534981     -1.327931
  C       3.048087      0.704612      0.937464
  O       3.004843      0.411565      2.255331
  O       3.771467      1.598534      0.563494
  C       2.786259     -1.544813     -0.134550
  C       2.042546     -2.679903      0.196414
  C       2.564334     -3.966395      0.000420
  C       3.856229     -4.111961     -0.523091
  C       4.613856     -2.985766     -0.827558
  C       4.081091     -1.709801     -0.641067
  C       1.751525     -5.196381      0.262434
  O       1.914792     -6.195527     -0.432891
  C       0.741609     -5.208635      1.365440
  C       0.936989     -4.500075      2.560104
  C       0.006259     -4.597335      3.593601
  C      -1.136790     -5.381309      3.434506
  C      -1.341546     -6.085303      2.244471
  C      -0.401744     -6.010400      1.221623
  H       1.455894      1.509315     -1.184184
  H       1.268260     -0.084347     -1.938662
  H       2.864550      0.682979     -1.870173
  H       2.377427     -0.302159      2.445560
  H       1.036481     -2.557885      0.580780
  H       4.259500     -5.105623     -0.677846
  H       5.620282     -3.097609     -1.215113
  H       4.679391     -0.841049     -0.895182
  H       1.825234     -3.894717      2.695338
  H       0.173519     -4.060287      4.520586
  H      -1.865690     -5.446072      4.235061
  H      -2.231102     -6.692448      2.118096
  H      -0.548958     -6.561595      0.300186
33
Coordinates from ORCA-job Dexketoprofen\Dexketoprofen_B3LYP_6-311+G\Dexketoprofen_B3LYP_6-311+G.orcainp E -843.586991641397
  H       1.208988     -0.270331      0.531890
  C       2.169879     -0.150177      0.020130
  C       1.926655      0.537654     -1.330414
  C       3.042060      0.709269      0.937928
  O       3.049796      0.370161      2.245714
  O       3.716247      1.645260      0.575428
  C       2.782581     -1.542162     -0.136266
  C       2.036815     -2.677573      0.189863
  C       2.560681     -3.964032     -0.000436
  C       3.855704     -4.109505     -0.516008
  C       4.614477     -2.983245     -0.817675
  C       4.080469     -1.707344     -0.635097
  C       1.747901     -5.194328      0.261159
  O       1.912052     -6.193330     -0.434040
  C       0.738343     -5.206719      1.364510
  C       0.929227     -4.490749      2.555560
  C      -0.001274     -4.587596      3.589269
  C      -1.139581     -5.379216      3.434387
  C      -1.339706     -6.091150      2.248273
  C      -0.400259     -6.016124      1.225190
  H       1.453543      1.511774     -1.187238
  H       1.266439     -0.082540     -1.940598
  H       2.862449      0.685251     -1.872951
  H       2.461355     -0.378493      2.426314
  H       1.028144     -2.555635      0.567462
  H       4.260969     -5.103052     -0.666341
  H       5.623161     -3.095283     -1.199272
  H       4.680337     -0.838562     -0.885984
  H       1.814012     -3.879852      2.688169
  H       0.162522     -4.044318      4.513225
  H      -1.868298     -5.443781      4.235110
  H      -2.225425     -6.704525      2.125149
  H      -0.544096     -6.573316      0.306829
33
Coordinates from ORCA-job Dexketoprofen\Dexketoprofen_B3LYP_6-311+G\Dexketoprofen_B3LYP_6-311+G.orcainp E -843.586991627450
  H       1.209164     -0.270354      0.532370
  C       2.169872     -0.150242      0.020213
  C       1.926095      0.537104     -1.330482
  C       3.041940      0.709783      0.937541
  O       3.050516      0.370690      2.245323
  O       3.715275      1.646279      0.574752
  C       2.782703     -1.542171     -0.135975
  C       2.036952     -2.677604      0.190142
  C       2.560824     -3.964050     -0.000244
  C       3.855883     -4.109485     -0.515722
  C       4.614700     -2.983202     -0.817240
  C       4.080661     -1.707312     -0.634671
  C       1.747962     -5.194337      0.261099
  O       1.911998     -6.193229     -0.434274
  C       0.738360     -5.206760      1.364420
  C       0.929539     -4.491244      2.555701
  C      -0.000990     -4.588051      3.589383
  C      -1.139627     -5.379140      3.434230
  C      -1.340066     -6.090583      2.247876
  C      -0.400584     -6.015641      1.224817
  H       1.452745      1.511139     -1.187519
  H       1.265921     -0.083469     -1.940326
  H       2.861726      0.684778     -1.873291
  H       2.462841     -0.378517      2.426116
  H       1.028248     -2.555713      0.567669
  H       4.261122     -5.103030     -0.666149
  H       5.623414     -3.095235     -1.198759
  H       4.680506     -0.838482     -0.885467
  H       1.814561     -3.880720      2.688450
  H       0.163017     -4.045150      4.513519
  H      -1.868372     -5.443671      4.234926
  H      -2.226070     -6.703507      2.124559
  H      -0.544664     -6.572443      0.306255
