33
Coordinates from ORCA-job Ibuprofen\Ibuprofen_B3LYP_def2-TZVP\Ibuprofen_B3LYP_def2-TZVP.orcainp E -656.556952161114
  C       2.842510      1.014110     -0.690960
  C       2.437690     -0.009060      0.374610
  C       0.915750     -0.012780      0.534930
  C       2.946700     -1.423850      0.034700
  C       4.452510     -1.513090     -0.087910
  C       5.277230     -1.215550      1.002860
  C       6.667580     -1.274990      0.882040
  C       7.268100     -1.656380     -0.327510
  C       6.437700     -1.958350     -1.417510
  C       5.046700     -1.885390     -1.299020
  C       8.783870     -1.788420     -0.411690
  C       9.164180     -3.235080     -0.743820
  C       9.513210     -0.839790     -1.362140
  O       8.781460      0.156950     -1.905060
  O      10.710310     -0.940170     -1.605150
  H       2.470370      2.010460     -0.430770
  H       2.438690      0.744240     -1.672520
  H       3.930590      1.089590     -0.779720
  H       2.868570      0.312180      1.331760
  H       0.418950     -0.363010     -0.376260
  H       0.546190      0.994340      0.755010
  H       0.613060     -0.666040      1.360240
  H       2.478110     -1.765750     -0.899720
  H       2.625320     -2.133830      0.806930
  H       4.840790     -0.937170      1.960230
  H       7.274980     -1.039130      1.754990
  H       6.862000     -2.264560     -2.372910
  H       4.429200     -2.128150     -2.161630
  H       9.195240     -1.554450      0.580860
  H       8.802730     -3.531290     -1.735620
  H       8.741970     -3.930270     -0.010210
  H      10.251230     -3.369730     -0.746220
  H       7.847100      0.180330     -1.633980
33
Coordinates from ORCA-job Ibuprofen\Ibuprofen_B3LYP_def2-TZVP\Ibuprofen_B3LYP_def2-TZVP.orcainp E -656.559845564929
  C       2.799455      1.028905     -0.745661
  C       2.432371      0.022806      0.351159
  C       0.915088     -0.005976      0.566999
  C       2.953140     -1.392448      0.033954
  C       4.458876     -1.500352     -0.088241
  C       5.288698     -1.237389      1.004431
  C       6.673556     -1.326062      0.889505
  C       7.273556     -1.693723     -0.317987
  C       6.443453     -1.963609     -1.409671
  C       5.057683     -1.865885     -1.295343
  C       8.786268     -1.822761     -0.407405
  C       9.215406     -3.259109     -0.755038
  C       9.483730     -0.828992     -1.336569
  O       8.749938      0.166842     -1.852633
  O      10.662469     -0.895192     -1.605102
  H       2.421410      2.023674     -0.497327
  H       2.369089      0.733932     -1.707278
  H       3.881319      1.112368     -0.871998
  H       2.890866      0.360510      1.286481
  H       0.397408     -0.366085     -0.326823
  H       0.535004      0.992873      0.795247
  H       0.647703     -0.664503      1.398146
  H       2.487263     -1.739711     -0.893260
  H       2.617903     -2.083074      0.816006
  H       4.856327     -0.961615      1.959148
  H       7.284839     -1.110564      1.758648
  H       6.867924     -2.254097     -2.364042
  H       4.441607     -2.079234     -2.160850
  H       9.193268     -1.587829      0.581515
  H       8.864795     -3.552282     -1.746467
  H       8.807292     -3.964384     -0.030359
  H      10.301620     -3.358004     -0.748028
  H       7.821264      0.136888     -1.572329
33
Coordinates from ORCA-job Ibuprofen\Ibuprofen_B3LYP_def2-TZVP\Ibuprofen_B3LYP_def2-TZVP.orcainp E -656.560287830183
  C       2.763969      1.013961     -0.812944
  C       2.433635      0.044488      0.326459
  C       0.924985      0.006756      0.594047
  C       2.958485     -1.377182      0.045382
  C       4.460930     -1.492931     -0.081769
  C       5.297302     -1.244402      1.009204
  C       6.678432     -1.349663      0.894609
  C       7.275954     -1.713196     -0.313537
  C       6.442059     -1.970703     -1.403535
  C       5.059818     -1.857563     -1.287856
  C       8.784896     -1.851713     -0.409992
  C       9.229675     -3.274891     -0.794066
  C       9.472799     -0.821241     -1.310131
  O       8.755078      0.225052     -1.739995
  O      10.648550     -0.866226     -1.578310
  H       2.389738      2.015106     -0.587144
  H       2.301228      0.685453     -1.748435
  H       3.840358      1.091422     -0.980470
  H       2.922057      0.410865      1.235744
  H       0.384286     -0.371960     -0.278404
  H       0.542583      1.005349      0.816849
  H       0.688618     -0.642419      1.440729
  H       2.489750     -1.746753     -0.871041
  H       2.621479     -2.038048      0.851203
  H       4.867878     -0.968479      1.964939
  H       7.297103     -1.149208      1.761379
  H       6.866003     -2.263667     -2.356833
  H       4.439824     -2.061446     -2.152530
  H       9.196004     -1.638324      0.581616
  H       8.876845     -3.544777     -1.790341
  H       8.824566     -3.993593     -0.082361
  H      10.315598     -3.357537     -0.785260
  H       7.830108      0.163391     -1.448376
33
Coordinates from ORCA-job Ibuprofen\Ibuprofen_B3LYP_def2-TZVP\Ibuprofen_B3LYP_def2-TZVP.orcainp E -656.560340586674
  C       2.733676      0.989451     -0.882550
  C       2.437709      0.062695      0.299206
  C       0.939418      0.024845      0.615307
  C       2.963922     -1.366997      0.057455
  C       4.462511     -1.487769     -0.071262
  C       5.301546     -1.258736      1.022720
  C       6.679930     -1.375200      0.910992
  C       7.278827     -1.728002     -0.299383
  C       6.444372     -1.964739     -1.393426
  C       5.064874     -1.840848     -1.278730
  C       8.784305     -1.874072     -0.400948
  C       9.242747     -3.278518     -0.833775
  C       9.464882     -0.799789     -1.258972
  O       8.745876      0.269233     -1.634451
  O      10.612354     -0.879019     -1.621206
  H       2.368461      1.999263     -0.682034
  H       2.236848      0.628594     -1.788603
  H       3.803897      1.052335     -1.091155
  H       2.955840      0.458376      1.180266
  H       0.375821     -0.372075     -0.234842
  H       0.558717      1.025849      0.829413
  H       0.730652     -0.610889      1.478554
  H       2.493613     -1.761613     -0.848111
  H       2.625869     -1.994875      0.888127
  H       4.870906     -0.991042      1.980876
  H       7.303939     -1.195263      1.778811
  H       6.871618     -2.251285     -2.347545
  H       4.442819     -2.030082     -2.145949
  H       9.197855     -1.689092      0.595706
  H       8.886454     -3.516040     -1.836713
  H       8.840919     -4.017015     -0.140766
  H      10.328877     -3.344201     -0.824171
  H       7.830536      0.182442     -1.314010
33
Coordinates from ORCA-job Ibuprofen\Ibuprofen_B3LYP_def2-TZVP\Ibuprofen_B3LYP_def2-TZVP.orcainp E -656.560636410537
  C       2.739500      0.981251     -0.883095
  C       2.439430      0.058328      0.300819
  C       0.939613      0.028361      0.609004
  C       2.962043     -1.374626      0.063808
  C       4.461129     -1.493711     -0.067204
  C       5.300654     -1.260247      1.025930
  C       6.680512     -1.370254      0.910429
  C       7.277191     -1.725109     -0.302049
  C       6.440881     -1.963677     -1.395852
  C       5.060134     -1.846065     -1.277651
  C       8.784012     -1.869325     -0.405705
  C       9.232056     -3.276169     -0.838233
  C       9.468883     -0.803505     -1.269896
  O       8.757760      0.281629     -1.618697
  O      10.623826     -0.880567     -1.617147
  H       2.377866      1.993193     -0.685699
  H       2.244049      0.619875     -1.789703
  H       3.810530      1.041246     -1.088354
  H       2.954416      0.457484      1.182137
  H       0.377661     -0.373514     -0.239856
  H       0.561812      1.032835      0.813533
  H       0.725509     -0.598383      1.478035
  H       2.489126     -1.774568     -0.838423
  H       2.628537     -2.000925      0.897687
  H       4.870871     -0.993899      1.985043
  H       7.304911     -1.186111      1.777517
  H       6.866336     -2.246652     -2.352036
  H       4.436703     -2.037534     -2.143617
  H       9.200252     -1.685559      0.590853
  H       8.872728     -3.513460     -1.840451
  H       8.829857     -4.014478     -0.144390
  H      10.318416     -3.349012     -0.833617
  H       7.843385      0.209071     -1.294289
33
Coordinates from ORCA-job Ibuprofen\Ibuprofen_B3LYP_def2-TZVP\Ibuprofen_B3LYP_def2-TZVP.orcainp E -656.560733995855
  C       2.739031      0.958119     -0.913794
  C       2.444498      0.060248      0.290480
  C       0.946839      0.042039      0.608122
  C       2.961868     -1.379581      0.078436
  C       4.459982     -1.499604     -0.056790
  C       5.301585     -1.270497      1.035845
  C       6.681556     -1.378375      0.916236
  C       7.275148     -1.727324     -0.300241
  C       6.436220     -1.960045     -1.394065
  C       5.055725     -1.845159     -1.271431
  C       8.781630     -1.872007     -0.409475
  C       9.225276     -3.273841     -0.859967
  C       9.464477     -0.796346     -1.263120
  O       8.765699      0.316478     -1.548366
  O      10.608912     -0.883085     -1.643377
  H       2.385903      1.976269     -0.733280
  H       2.232983      0.582346     -1.808669
  H       3.808788      1.006871     -1.129482
  H       2.967587      0.475077      1.159795
  H       0.377908     -0.374389     -0.228996
  H       0.573962      1.051985      0.794767
  H       0.736233     -0.565788      1.491496
  H       2.484301     -1.796945     -0.813503
  H       2.633074     -1.987939      0.927179
  H       4.873020     -1.009839      1.997236
  H       7.309004     -1.198771      1.782266
  H       6.860331     -2.235800     -2.353018
  H       4.429549     -2.032720     -2.136417
  H       9.201518     -1.699698      0.588155
  H       8.861713     -3.498836     -1.863488
  H       8.824879     -4.019804     -0.172956
  H      10.311691     -3.347293     -0.860467
  H       7.859697      0.250174     -1.200280
33
Coordinates from ORCA-job Ibuprofen\Ibuprofen_B3LYP_def2-TZVP\Ibuprofen_B3LYP_def2-TZVP.orcainp E -656.560753490217
  C       2.775693      0.841443     -1.040532
  C       2.480963      0.062109      0.243624
  C       0.992313      0.119583      0.591780
  C       2.955710     -1.407139      0.142941
  C       4.447900     -1.536272     -0.007488
  C       5.297627     -1.330421      1.082797
  C       6.676881     -1.427470      0.943986
  C       7.254681     -1.741990     -0.290822
  C       6.405344     -1.950215     -1.382719
  C       5.027949     -1.849652     -1.239790
  C       8.758110     -1.873743     -0.430384
  C       9.204566     -3.247332     -0.950238
  C       9.400422     -0.743476     -1.242928
  O       8.764864      0.447403     -1.229537
  O      10.466354     -0.840575     -1.807277
  H       2.471439      1.886332     -0.941027
  H       2.228936      0.413425     -1.886786
  H       3.842973      0.823246     -1.284224
  H       3.041462      0.530878      1.060878
  H       0.390686     -0.347766     -0.193934
  H       0.654852      1.153921      0.697389
  H       0.785013     -0.400204      1.530820
  H       2.456846     -1.891949     -0.702077
  H       2.641162     -1.932091      1.049996
  H       4.874812     -1.096165      2.054001
  H       7.318520     -1.267627      1.803956
  H       6.823388     -2.190147     -2.353961
  H       4.389366     -2.017922     -2.100011
  H       9.195755     -1.737915      0.567223
  H       8.823508     -3.431442     -1.955424
  H       8.826106     -4.027679     -0.288567
  H      10.291777     -3.305757     -0.974962
  H       7.914614      0.382528     -0.757871
33
Coordinates from ORCA-job Ibuprofen\Ibuprofen_B3LYP_def2-TZVP\Ibuprofen_B3LYP_def2-TZVP.orcainp E -656.560988324593
  C       2.739118      0.910334     -0.977524
  C       2.452341      0.065548      0.266365
  C       0.957804      0.074034      0.595160
  C       2.959882     -1.389230      0.114716
  C       4.456833     -1.516925     -0.032466
  C       5.303719     -1.308632      1.060085
  C       6.684682     -1.409979      0.929098
  C       7.270261     -1.736312     -0.298678
  C       6.424440     -1.950106     -1.392858
  C       5.044511     -1.840336     -1.259121
  C       8.777879     -1.873608     -0.424841
  C       9.218200     -3.267498     -0.894413
  C       9.444028     -0.781984     -1.271721
  O       8.799149      0.396075     -1.372185
  O      10.532902     -0.901961     -1.784154
  H       2.397628      1.938679     -0.835791
  H       2.219472      0.502701     -1.850386
  H       3.805986      0.941298     -1.205727
  H       2.988265      0.512872      1.111436
  H       0.378139     -0.375041     -0.217231
  H       0.594386      1.094913      0.737954
  H       0.750246     -0.488797      1.508893
  H       2.468777     -1.847545     -0.749260
  H       2.642633     -1.952163      0.997932
  H       4.878146     -1.068218      2.028380
  H       7.319749     -1.246736      1.793138
  H       6.845156     -2.202492     -2.359795
  H       4.411395     -2.013778     -2.122195
  H       9.207260     -1.708022      0.571293
  H       8.845917     -3.482563     -1.896883
  H       8.827201     -4.022889     -0.211705
  H      10.305047     -3.337405     -0.906990
  H       7.929438      0.351687     -0.941695
33
Coordinates from ORCA-job Ibuprofen\Ibuprofen_B3LYP_def2-TZVP\Ibuprofen_B3LYP_def2-TZVP.orcainp E -656.561101817619
  C       2.739660      0.908489     -0.983388
  C       2.453692      0.066837      0.262771
  C       0.959340      0.075600      0.593021
  C       2.960428     -1.388352      0.116139
  C       4.457042     -1.519290     -0.031750
  C       5.303839     -1.319170      1.061898
  C       6.684721     -1.421589      0.930529
  C       7.269717     -1.739237     -0.299119
  C       6.424306     -1.945324     -1.394479
  C       5.044697     -1.835683     -1.260262
  C       8.777248     -1.872318     -0.428178
  C       9.222277     -3.268241     -0.885521
  C       9.430588     -0.783662     -1.287611
  O       8.802132      0.405750     -1.350324
  O      10.494871     -0.914903     -1.845529
  H       2.397870      1.936923     -0.843310
  H       2.219245      0.499036     -1.854898
  H       3.806375      0.939679     -1.212954
  H       2.990351      0.515938      1.106470
  H       0.379157     -0.375619     -0.217767
  H       0.595873      1.096692      0.733449
  H       0.752237     -0.484923      1.508227
  H       2.467655     -1.849270     -0.745488
  H       2.642802     -1.946846      1.001967
  H       4.878259     -1.084336      2.031458
  H       7.319888     -1.264287      1.795463
  H       6.845307     -2.191770     -2.362823
  H       4.411600     -2.002601     -2.124555
  H       9.207927     -1.693702      0.565109
  H       8.849455     -3.493932     -1.885477
  H       8.835144     -4.018939     -0.195656
  H      10.309284     -3.335222     -0.899360
  H       7.947600      0.370192     -0.889224
33
Coordinates from ORCA-job Ibuprofen\Ibuprofen_B3LYP_def2-TZVP\Ibuprofen_B3LYP_def2-TZVP.orcainp E -656.561389513352
  C       2.757485      0.897608     -0.992640
  C       2.459613      0.063531      0.255667
  C       0.963318      0.078128      0.580130
  C       2.959597     -1.392769      0.120522
  C       4.454782     -1.529710     -0.028833
  C       5.300856     -1.354187      1.067864
  C       6.681729     -1.453633      0.933772
  C       7.264268     -1.737129     -0.302917
  C       6.420218     -1.923257     -1.400732
  C       5.041731     -1.820510     -1.263617
  C       8.771399     -1.860289     -0.441314
  C       9.227336     -3.266052     -0.848284
  C       9.379656     -0.790858     -1.351691
  O       8.832915      0.438479     -1.289544
  O      10.334376     -0.966940     -2.069075
  H       2.417777      1.927336     -0.857710
  H       2.241087      0.486955     -1.865848
  H       3.826530      0.925486     -1.216686
  H       2.993677      0.513683      1.100531
  H       0.385534     -0.376124     -0.230568
  H       0.602459      1.100919      0.713083
  H       0.749245     -0.476710      1.496943
  H       2.463068     -1.857770     -0.736726
  H       2.639817     -1.942403      1.011040
  H       4.875568     -1.139818      2.042026
  H       7.316323     -1.314527      1.801841
  H       6.841758     -2.149195     -2.373882
  H       4.408848     -1.968920     -2.131143
  H       9.206593     -1.633102      0.539887
  H       8.851062     -3.532077     -1.837050
  H       8.851033     -3.994900     -0.130046
  H      10.314610     -3.329296     -0.867919
  H       8.046323      0.443973     -0.718251
33
Coordinates from ORCA-job Ibuprofen\Ibuprofen_B3LYP_def2-TZVP\Ibuprofen_B3LYP_def2-TZVP.orcainp E -656.561496775303
  C       2.763139      0.902568     -0.982185
  C       2.457126      0.058693      0.257426
  C       0.958741      0.070667      0.572921
  C       2.957805     -1.396441      0.115351
  C       4.453182     -1.531937     -0.033537
  C       5.297951     -1.368738      1.065626
  C       6.679371     -1.463730      0.931297
  C       7.262322     -1.732221     -0.307608
  C       6.419990     -1.907222     -1.408101
  C       5.041469     -1.807893     -1.271154
  C       8.770599     -1.851924     -0.447950
  C       9.232078     -3.266014     -0.812336
  C       9.354269     -0.807293     -1.399220
  O       8.871107      0.445134     -1.283369
  O      10.232450     -1.018592     -2.199506
  H       2.419545      1.930299     -0.841794
  H       2.255076      0.497444     -1.862838
  H       3.833765      0.935164     -1.197270
  H       2.985166      0.502892      1.109272
  H       0.386251     -0.378567     -0.244329
  H       0.596634      1.092372      0.710576
  H       0.739055     -0.490678      1.484368
  H       2.462080     -1.856928     -0.744856
  H       2.636707     -1.951354      1.002107
  H       4.871867     -1.166273      2.041980
  H       7.312240     -1.333105      1.801863
  H       6.842730     -2.121517     -2.383477
  H       4.409734     -1.947426     -2.140981
  H       9.207395     -1.588491      0.523286
  H       8.852695     -3.564852     -1.790571
  H       8.862832     -3.974288     -0.070200
  H      10.319794     -3.326852     -0.836229
  H       8.135427      0.483024     -0.649735
33
Coordinates from ORCA-job Ibuprofen\Ibuprofen_B3LYP_def2-TZVP\Ibuprofen_B3LYP_def2-TZVP.orcainp E -656.561628869062
  C       2.758087      0.914437     -0.963152
  C       2.448694      0.050537      0.261606
  C       0.948735      0.051699      0.569748
  C       2.956249     -1.400447      0.100930
  C       4.452480     -1.526090     -0.046036
  C       5.295323     -1.368471      1.055374
  C       6.677213     -1.458835      0.922506
  C       7.261801     -1.719370     -0.316660
  C       6.422295     -1.888070     -1.420031
  C       5.043430     -1.791860     -1.284657
  C       8.771456     -1.844225     -0.453763
  C       9.233021     -3.268896     -0.766880
  C       9.332291     -0.835518     -1.452699
  O       8.948902      0.445674     -1.278386
  O      10.101910     -1.094852     -2.345188
  H       2.404018      1.936979     -0.811313
  H       2.261767      0.517419     -1.854196
  H       3.830314      0.959032     -1.167455
  H       2.969744      0.484790      1.122921
  H       0.382458     -0.387636     -0.257253
  H       0.581398      1.069527      0.721381
  H       0.727155     -0.525226      1.470951
  H       2.465063     -1.851875     -0.766707
  H       2.634953     -1.969519      0.978618
  H       4.867815     -1.174306      2.032847
  H       7.307538     -1.332901      1.795639
  H       6.846658     -2.097257     -2.395934
  H       4.413455     -1.927915     -2.156366
  H       9.208619     -1.542094      0.505413
  H       8.848812     -3.605257     -1.731049
  H       8.868843     -3.949061      0.003706
  H      10.321110     -3.330241     -0.795055
  H       8.288985      0.525748     -0.570029
33
Coordinates from ORCA-job Ibuprofen\Ibuprofen_B3LYP_def2-TZVP\Ibuprofen_B3LYP_def2-TZVP.orcainp E -656.561631363441
  C       2.775072      0.929900     -0.921235
  C       2.443312      0.032724      0.273464
  C       0.939427      0.030130      0.562252
  C       2.949462     -1.413277      0.074747
  C       4.446295     -1.525597     -0.064003
  C       5.284928     -1.363386      1.039982
  C       6.666988     -1.445830      0.910628
  C       7.255038     -1.703166     -0.327273
  C       6.420893     -1.876042     -1.433141
  C       5.041515     -1.786746     -1.300985
  C       8.766473     -1.828082     -0.456953
  C       9.234163     -3.262024     -0.707567
  C       9.294198     -0.867795     -1.516651
  O       9.027800      0.439728     -1.308504
  O       9.924248     -1.183379     -2.496306
  H       2.415642      1.947430     -0.749744
  H       2.298648      0.555814     -1.832896
  H       3.852674      0.980326     -1.100522
  H       2.953611      0.440723      1.153853
  H       0.382701     -0.381977     -0.285151
  H       0.573024      1.043885      0.740732
  H       0.705109     -0.574588      1.441782
  H       2.467563     -1.841060     -0.809930
  H       2.622713     -2.009640      0.932267
  H       4.854788     -1.170763      2.016681
  H       7.293382     -1.314835      1.785912
  H       6.848003     -2.083554     -2.408234
  H       4.414736     -1.924347     -2.174844
  H       9.201671     -1.478979      0.485834
  H       8.842630     -3.646306     -1.650647
  H       8.882609     -3.907171      0.098458
  H      10.322922     -3.317613     -0.744616
  H       8.478353      0.571418     -0.518560
33
Coordinates from ORCA-job Ibuprofen\Ibuprofen_B3LYP_def2-TZVP\Ibuprofen_B3LYP_def2-TZVP.orcainp E -656.561719142558
  C       2.736526      0.950161     -0.914675
  C       2.429540      0.039465      0.276402
  C       0.927407      0.013137      0.572768
  C       2.955068     -1.399133      0.067719
  C       4.453970     -1.511375     -0.072588
  C       5.293089     -1.345388      1.031457
  C       6.675712     -1.433671      0.905398
  C       7.266944     -1.700768     -0.329526
  C       6.432566     -1.875637     -1.435942
  C       5.051824     -1.780584     -1.306936
  C       8.779692     -1.836631     -0.453176
  C       9.231338     -3.276076     -0.706912
  C       9.334797     -0.881322     -1.505065
  O       9.046975      0.425149     -1.329319
  O      10.008270     -1.204330     -2.453108
  H       2.361918      1.960440     -0.733110
  H       2.258077      0.574318     -1.824540
  H       3.809222      1.020129     -1.103985
  H       2.937997      0.450156      1.156564
  H       0.372341     -0.401686     -0.274386
  H       0.547209      1.020308      0.759531
  H       0.706600     -0.600421      1.449668
  H       2.474786     -1.823323     -0.819511
  H       2.630893     -2.003973      0.920338
  H       4.862389     -1.147108      2.006781
  H       7.300565     -1.301003      1.781532
  H       6.860150     -2.090839     -2.409115
  H       4.426540     -1.921822     -2.181297
  H       9.213663     -1.497797      0.493849
  H       8.839793     -3.651700     -1.653349
  H       8.867775     -3.919725      0.094950
  H      10.319446     -3.343813     -0.738263
  H       8.467509      0.560781     -0.563324
33
Coordinates from ORCA-job Ibuprofen\Ibuprofen_B3LYP_def2-TZVP\Ibuprofen_B3LYP_def2-TZVP.orcainp E -656.561754848818
  C       2.728849      0.938927     -0.935309
  C       2.432284      0.043093      0.269782
  C       0.932940      0.022887      0.579539
  C       2.954273     -1.399014      0.073115
  C       4.452743     -1.515111     -0.069043
  C       5.292576     -1.347510      1.034348
  C       6.675058     -1.437432      0.907559
  C       7.265517     -1.707123     -0.327866
  C       6.430127     -1.883283     -1.433423
  C       5.049493     -1.787402     -1.303467
  C       8.777975     -1.839177     -0.453128
  C       9.230065     -3.275748     -0.724806
  C       9.336428     -0.868422     -1.490769
  O       9.055060      0.436550     -1.293148
  O      10.015140     -1.178510     -2.439525
  H       2.361072      1.953064     -0.761376
  H       2.237668      0.554696     -1.834792
  H       3.799560      1.001873     -1.138331
  H       2.950252      0.462878      1.139995
  H       0.369310     -0.399926     -0.257885
  H       0.556474      1.032984      0.758239
  H       0.718918     -0.579681      1.465760
  H       2.471052     -1.830784     -0.808825
  H       2.631781     -1.994127      0.933119
  H       4.862011     -1.146731      2.009266
  H       7.301893     -1.303467      1.782131
  H       6.857425     -2.097916     -2.406795
  H       4.423107     -1.929119     -2.176994
  H       9.211749     -1.512934      0.498876
  H       8.838604     -3.639550     -1.675629
  H       8.867056     -3.929241      0.069305
  H      10.318078     -3.340912     -0.756408
  H       8.476052      0.562086     -0.524686
33
Coordinates from ORCA-job Ibuprofen\Ibuprofen_B3LYP_def2-TZVP\Ibuprofen_B3LYP_def2-TZVP.orcainp E -656.561795795977
  C       2.716532      0.928209     -0.953994
  C       2.433340      0.044383      0.263392
  C       0.937513      0.028027      0.589669
  C       2.952915     -1.399030      0.071830
  C       4.451139     -1.517163     -0.070064
  C       5.290647     -1.343223      1.033041
  C       6.672835     -1.434605      0.907634
  C       7.264203     -1.709288     -0.326916
  C       6.429374     -1.891014     -1.431689
  C       5.048394     -1.795815     -1.302524
  C       8.776629     -1.839469     -0.450732
  C       9.226464     -3.274512     -0.738000
  C       9.334743     -0.859705     -1.480769
  O       9.086021      0.446838     -1.252016
  O       9.986004     -1.165979     -2.449925
  H       2.357361      1.946127     -0.784235
  H       2.209174      0.538416     -1.842003
  H       3.784586      0.982755     -1.174486
  H       2.961983      0.471247      1.123572
  H       0.364054     -0.400328     -0.238153
  H       0.564229      1.040014      0.764542
  H       0.732840     -0.566898      1.483250
  H       2.469154     -1.833031     -0.808717
  H       2.630795     -1.990456      0.934584
  H       4.859367     -1.136770      2.006473
  H       7.300376     -1.296462      1.781053
  H       6.857171     -2.109223     -2.404011
  H       4.422235     -1.941380     -2.175615
  H       9.209650     -1.524689      0.505273
  H       8.831768     -3.628377     -1.690994
  H       8.864936     -3.934592      0.051283
  H      10.314459     -3.338689     -0.772270
  H       8.539699      0.570601     -0.459653
33
Coordinates from ORCA-job Ibuprofen\Ibuprofen_B3LYP_def2-TZVP\Ibuprofen_B3LYP_def2-TZVP.orcainp E -656.561818551957
  C       2.708611      0.918826     -0.968439
  C       2.433375      0.044625      0.257834
  C       0.939883      0.032061      0.594813
  C       2.950897     -1.399865      0.071210
  C       4.449003     -1.519560     -0.070306
  C       5.288077     -1.343265      1.033021
  C       6.670096     -1.434429      0.908594
  C       7.262255     -1.710250     -0.325462
  C       6.428226     -1.894982     -1.429907
  C       5.046914     -1.800761     -1.301515
  C       8.775209     -1.837669     -0.449018
  C       9.225785     -3.271080     -0.744718
  C       9.324658     -0.854028     -1.479404
  O       9.123091      0.453971     -1.216064
  O       9.924203     -1.159067     -2.481707
  H       2.357462      1.940124     -0.802206
  H       2.189054      0.525648     -1.847863
  H       3.774481      0.965199     -1.201550
  H       2.968733      0.477130      1.110947
  H       0.360106     -0.401987     -0.225582
  H       0.568871      1.045801      0.764462
  H       0.741038     -0.555478      1.494546
  H       2.466957     -1.835568     -0.808410
  H       2.628744     -1.988680      0.935767
  H       4.856184     -1.134923      2.005783
  H       7.297634     -1.294748      1.781763
  H       6.856400     -2.114803     -2.401661
  H       4.421327     -1.948459     -2.174664
  H       9.207899     -1.527294      0.508157
  H       8.827202     -3.621266     -1.697268
  H       8.868471     -3.934475      0.043728
  H      10.313874     -3.333419     -0.783639
  H       8.625871      0.578592     -0.392413
33
Coordinates from ORCA-job Ibuprofen\Ibuprofen_B3LYP_def2-TZVP\Ibuprofen_B3LYP_def2-TZVP.orcainp E -656.561830845520
  C       2.703007      0.915036     -0.975704
  C       2.431616      0.045471      0.254685
  C       0.938889      0.032500      0.595148
  C       2.950514     -1.398965      0.072592
  C       4.448696     -1.518764     -0.069516
  C       5.288014     -1.341911      1.033638
  C       6.669952     -1.433202      0.909436
  C       7.262191     -1.710622     -0.323934
  C       6.428215     -1.896065     -1.428192
  C       5.046750     -1.801061     -1.300212
  C       8.775702     -1.837990     -0.447690
  C       9.226515     -3.270158     -0.749170
  C       9.318397     -0.852101     -1.478766
  O       9.145615      0.455764     -1.196469
  O       9.882250     -1.155696     -2.501979
  H       2.354285      1.937492     -0.811529
  H       2.178757      0.519466     -1.851289
  H       3.767620      0.958848     -1.214252
  H       2.968008      0.482312      1.104957
  H       0.358041     -0.407347     -0.221401
  H       0.566672      1.046632      0.759659
  H       0.742827     -0.550114      1.498653
  H       2.466366     -1.837262     -0.805657
  H       2.629242     -1.985916      0.938706
  H       4.856239     -1.133075      2.006332
  H       7.297186     -1.293156      1.782746
  H       6.856073     -2.117617     -2.399610
  H       4.421517     -1.949980     -2.173386
  H       9.208563     -1.530517      0.509962
  H       8.825367     -3.617693     -1.701552
  H       8.871872     -3.936117      0.038342
  H      10.314603     -3.332364     -0.791633
  H       8.681027      0.580091     -0.354084
33
Coordinates from ORCA-job Ibuprofen\Ibuprofen_B3LYP_def2-TZVP\Ibuprofen_B3LYP_def2-TZVP.orcainp E -656.561829459244
  C       2.693864      0.907903     -0.986147
  C       2.426118      0.045156      0.249712
  C       0.933729      0.029136      0.591758
  C       2.949574     -1.398523      0.076799
  C       4.447891     -1.514799     -0.067246
  C       5.288073     -1.335057      1.034759
  C       6.669888     -1.425842      0.909922
  C       7.261196     -1.707607     -0.322356
  C       6.426878     -1.894874     -1.425800
  C       5.045419     -1.798816     -1.297575
  C       8.775565     -1.837829     -0.446398
  C       9.224922     -3.268521     -0.755975
  C       9.304907     -0.849991     -1.481398
  O       9.207233      0.455741     -1.158459
  O       9.784210     -1.149741     -2.547906
  H       2.346045      1.931330     -0.826345
  H       2.166427      0.507574     -1.857695
  H       3.757528      0.950164     -1.229010
  H       2.961227      0.489551      1.096942
  H       0.354225     -0.421842     -0.219687
  H       0.557172      1.043215      0.746129
  H       0.740710     -0.545200      1.501179
  H       2.465285     -1.844013     -0.797806
  H       2.631910     -1.981406      0.946885
  H       4.856968     -1.125381      2.007548
  H       7.296995     -1.284483      1.783083
  H       6.853550     -2.120130     -2.396705
  H       4.420274     -1.950834     -2.170238
  H       9.209017     -1.534681      0.511685
  H       8.818539     -3.612574     -1.707254
  H       8.875201     -3.937765      0.030993
  H      10.312896     -3.331495     -0.805539
  H       8.817153      0.577555     -0.279025
33
Coordinates from ORCA-job Ibuprofen\Ibuprofen_B3LYP_def2-TZVP\Ibuprofen_B3LYP_def2-TZVP.orcainp E -656.561839258780
  C       2.695188      0.914802     -0.977793
  C       2.426088      0.045782      0.253343
  C       0.932839      0.026260      0.591487
  C       2.951450     -1.396774      0.075733
  C       4.449935     -1.513090     -0.068282
  C       5.290311     -1.333743      1.033648
  C       6.672277     -1.425535      0.908742
  C       7.263493     -1.707410     -0.323757
  C       6.428698     -1.893862     -1.427285
  C       5.047305     -1.797170     -1.298884
  C       8.777369     -1.839759     -0.447426
  C       9.224055     -3.272215     -0.752796
  C       9.317433     -0.854439     -1.480017
  O       9.180157      0.453482     -1.180852
  O       9.844860     -1.159229     -2.522156
  H       2.342196      1.935972     -0.814869
  H       2.173225      0.516174     -1.853385
  H       3.759530      0.962878     -1.215787
  H       2.958553      0.486878      1.103954
  H       0.355827     -0.420324     -0.224155
  H       0.554828      1.038987      0.751108
  H       0.738179     -0.553859      1.496894
  H       2.467359     -1.839996     -0.800117
  H       2.633445     -1.982207      0.944022
  H       4.859407     -1.123636      2.006435
  H       7.299442     -1.284407      1.781906
  H       6.855377     -2.118713     -2.398346
  H       4.421885     -1.948206     -2.171534
  H       9.210905     -1.535713      0.510672
  H       8.820599     -3.616761     -1.705264
  H       8.869447     -3.939421      0.033677
  H      10.311955     -3.337761     -0.797829
  H       8.746971      0.578932     -0.322257
33
Coordinates from ORCA-job Ibuprofen\Ibuprofen_B3LYP_def2-TZVP\Ibuprofen_B3LYP_def2-TZVP.orcainp E -656.561840106025
  C       2.695679      0.913105     -0.979613
  C       2.425923      0.045956      0.252659
  C       0.932456      0.026681      0.589889
  C       2.951494     -1.396891      0.077955
  C       4.449874     -1.513032     -0.066587
  C       5.290724     -1.333003      1.034811
  C       6.672677     -1.424948      0.909269
  C       7.263187     -1.707433     -0.323418
  C       6.427866     -1.894338     -1.426508
  C       5.046601     -1.797673     -1.297425
  C       8.776987     -1.840046     -0.447843
  C       9.223304     -3.271932     -0.755907
  C       9.316343     -0.852966     -1.479204
  O       9.184375      0.454338     -1.174958
  O       9.838887     -1.155981     -2.524374
  H       2.341967      1.934321     -0.818518
  H       2.174774      0.512928     -1.855130
  H       3.760274      0.961446     -1.216621
  H       2.957788      0.488459      1.102935
  H       0.356091     -0.421557     -0.225309
  H       0.554027      1.039579      0.747445
  H       0.737355     -0.551906      1.496187
  H       2.466961     -1.842405     -0.796495
  H       2.634148     -1.980303      0.947844
  H       4.860266     -1.122255      2.007667
  H       7.300198     -1.283249      1.782089
  H       6.854092     -2.119395     -2.397718
  H       4.420758     -1.948937     -2.169740
  H       9.210906     -1.537784      0.510661
  H       8.819659     -3.614756     -1.708906
  H       8.868953     -3.940658      0.029405
  H      10.311194     -3.337477     -0.801439
  H       8.754801      0.578034     -0.314274
33
Coordinates from ORCA-job Ibuprofen\Ibuprofen_B3LYP_def2-TZVP\Ibuprofen_B3LYP_def2-TZVP.orcainp E -656.561840337325
  C       2.696102      0.913175     -0.978884
  C       2.424884      0.045760      0.252827
  C       0.930804      0.025221      0.587429
  C       2.951644     -1.396765      0.079463
  C       4.449995     -1.512225     -0.065413
  C       5.291304     -1.330961      1.035371
  C       6.673280     -1.423002      0.909311
  C       7.263165     -1.706802     -0.323341
  C       6.427363     -1.894541     -1.425986
  C       5.046201     -1.797742     -1.296358
  C       8.776956     -1.840183     -0.448227
  C       9.222317     -3.272067     -0.757235
  C       9.315635     -0.853147     -1.480152
  O       9.191202      0.454086     -1.172450
  O       9.831159     -1.156390     -2.528796
  H       2.340045      1.933708     -0.818593
  H       2.178195      0.512131     -1.855779
  H       3.761232      0.963538     -1.213146
  H       2.954815      0.488713      1.104101
  H       0.356311     -0.423566     -0.228802
  H       0.551113      1.037735      0.744361
  H       0.734604     -0.553712      1.493278
  H       2.467056     -1.843817     -0.794184
  H       2.634843     -1.979338      0.950131
  H       4.861330     -1.119215      2.008231
  H       7.300934     -1.280354      1.781885
  H       6.853155     -2.120253     -2.397229
  H       4.420031     -1.949561     -2.168347
  H       9.211292     -1.538665      0.510298
  H       8.818363     -3.614223     -1.710326
  H       8.868041     -3.941258      0.027725
  H      10.310184     -3.338034     -0.803259
  H       8.767034      0.577675     -0.309075
33
Coordinates from ORCA-job Ibuprofen\Ibuprofen_B3LYP_def2-TZVP\Ibuprofen_B3LYP_def2-TZVP.orcainp E -656.561840376587
  C       2.696740      0.913359     -0.978482
  C       2.425133      0.045756      0.253009
  C       0.930994      0.025441      0.587355
  C       2.951632     -1.396838      0.079425
  C       4.449956     -1.512465     -0.065366
  C       5.291277     -1.331107      1.035381
  C       6.673253     -1.423133      0.909284
  C       7.263113     -1.706992     -0.323377
  C       6.427278     -1.894895     -1.425975
  C       5.046129     -1.798146     -1.296301
  C       8.776865     -1.840163     -0.448316
  C       9.222414     -3.272031     -0.757243
  C       9.315827     -0.853027     -1.480051
  O       9.189009      0.454253     -1.173451
  O       9.833952     -1.156288     -2.527403
  H       2.340514      1.933833     -0.818173
  H       2.179223      0.512418     -1.855652
  H       3.761974      0.963838     -1.212296
  H       2.955023      0.488420      1.104457
  H       0.356515     -0.422746     -0.229215
  H       0.551545      1.037970      0.744771
  H       0.734507     -0.553927      1.492862
  H       2.467034     -1.843703     -0.794311
  H       2.634633     -1.979449      0.950005
  H       4.861337     -1.119248      2.008232
  H       7.300925     -1.280388      1.781829
  H       6.853085     -2.120675     -2.397198
  H       4.419906     -1.950068     -2.168236
  H       9.211184     -1.538568      0.510205
  H       8.818696     -3.614219     -1.710423
  H       8.868023     -3.941244      0.027642
  H      10.310297     -3.337830     -0.803003
  H       8.762599      0.577780     -0.311156
