24
Coordinates from ORCA-job Triclosan\Triclosan_PBE_def2-TZVP\Triclosan_PBE_def2-TZVP.orcainp E -1991.521278786769
  C      -0.498380      1.456720      0.098960
  C       0.836360      1.861870      0.139870
  C       1.858500      0.909640      0.076920
  C       1.527050     -0.445530      0.103270
  C       0.193990     -0.859110      0.065880
  C      -0.813110      0.098450      0.043280
  Cl     -2.458040     -0.389950     -0.044300
  O       2.486230     -1.418040      0.159240
  O       3.195400      1.239150      0.004080
  C       3.558400      2.365550     -0.713420
  C       4.599240      3.161890     -0.218400
  C       4.975450      4.330570     -0.889960
  C       4.312220      4.697790     -2.056160
  C       3.302130      3.893950     -2.580580
  C       2.944190      2.713370     -1.925990
  Cl      4.745030      6.153320     -2.864750
  Cl      5.438900      2.741890      1.230850
  H      -1.286770      2.204470      0.098980
  H       1.062640      2.922230      0.193350
  H      -0.040810     -1.921090      0.052350
  H       3.329410     -0.977310      0.373690
  H       5.776510      4.951890     -0.496780
  H       2.786880      4.180330     -3.495300
  H       2.168020      2.086870     -2.360910
24
Coordinates from ORCA-job Triclosan\Triclosan_PBE_def2-TZVP\Triclosan_PBE_def2-TZVP.orcainp E -1991.524688787530
  C      -0.576458      1.414960      0.220234
  C       0.745295      1.859851      0.172076
  C       1.792674      0.942948      0.040764
  C       1.513347     -0.431307      0.035376
  C       0.191326     -0.883179      0.080010
  C      -0.846268      0.044911      0.157012
  Cl     -2.489742     -0.506400      0.183872
  O       2.509498     -1.367902     -0.036783
  O       3.129856      1.300352     -0.003023
  C       3.515532      2.423521     -0.710841
  C       4.529963      3.224911     -0.169245
  C       4.985444      4.353168     -0.857826
  C       4.425736      4.674221     -2.093065
  C       3.436426      3.865881     -2.658026
  C       2.992991      2.736588     -1.971080
  Cl      4.969447      6.085808     -2.939513
  Cl      5.241568      2.834660      1.361004
  H      -1.389182      2.135963      0.305069
  H       0.948394      2.928273      0.241830
  H      -0.009958     -1.953966      0.050515
  H       3.366380     -0.909215      0.074004
  H       5.770075      4.974506     -0.427660
  H       3.010124      4.110378     -3.630808
  H       2.236969      2.099988     -2.429725
24
Coordinates from ORCA-job Triclosan\Triclosan_PBE_def2-TZVP\Triclosan_PBE_def2-TZVP.orcainp E -1991.525808744678
  C      -0.613707      1.396037      0.232285
  C       0.698383      1.864045      0.145466
  C       1.757864      0.965642      0.024468
  C       1.515536     -0.418896      0.003488
  C       0.204900     -0.894878      0.099981
  C      -0.846726      0.017277      0.207439
  Cl     -2.485239     -0.579586      0.309257
  O       2.534422     -1.318201     -0.122573
  O       3.095421      1.333637      0.017970
  C       3.494528      2.448310     -0.689026
  C       4.511210      3.245072     -0.141283
  C       5.010241      4.342203     -0.845900
  C       4.480581      4.642086     -2.101323
  C       3.469707      3.854651     -2.661215
  C       2.983441      2.760077     -1.950719
  Cl      5.090438      6.020693     -2.978213
  Cl      5.169182      2.863818      1.420166
  H      -1.441660      2.098632      0.330267
  H       0.890712      2.938288      0.182308
  H       0.025118     -1.970425      0.081234
  H       3.382238     -0.826731     -0.120036
  H       5.801138      4.953985     -0.412162
  H       3.068551      4.086666     -3.648049
  H       2.203161      2.136516     -2.389660
24
Coordinates from ORCA-job Triclosan\Triclosan_PBE_def2-TZVP\Triclosan_PBE_def2-TZVP.orcainp E -1991.525974205016
  C      -0.625904      1.389391      0.239863
  C       0.684099      1.866395      0.160230
  C       1.747154      0.975357      0.036487
  C       1.516765     -0.412496     -0.004045
  C       0.209021     -0.896763      0.088557
  C      -0.845094      0.009980      0.205142
  Cl     -2.480433     -0.602112      0.312511
  O       2.542886     -1.298509     -0.132000
  O       3.084895      1.349703      0.038799
  C       3.489894      2.456050     -0.678003
  C       4.513608      3.250267     -0.137938
  C       5.021854      4.336647     -0.851363
  C       4.492372      4.628809     -2.108234
  C       3.473652      3.848724     -2.661537
  C       2.979895      2.763316     -1.941713
  Cl      5.119535      5.992822     -2.999171
  Cl      5.163359      2.876508      1.429625
  H      -1.459963      2.083399      0.339219
  H       0.873120      2.940519      0.198170
  H       0.034478     -1.972633      0.060536
  H       3.382042     -0.793696     -0.159904
  H       5.816805      4.945761     -0.422319
  H       3.074496      4.078173     -3.649391
  H       2.190905      2.143309     -2.369352
24
Coordinates from ORCA-job Triclosan\Triclosan_PBE_def2-TZVP\Triclosan_PBE_def2-TZVP.orcainp E -1991.526071104389
  C      -0.633152      1.386460      0.239685
  C       0.676472      1.870274      0.181328
  C       1.742356      0.984607      0.058573
  C       1.521463     -0.405617     -0.002215
  C       0.214077     -0.895491      0.066378
  C      -0.841502      0.007817      0.183484
  Cl     -2.475641     -0.614622      0.266385
  O       2.553656     -1.282307     -0.118197
  O       3.079364      1.367582      0.072943
  C       3.488451      2.461325     -0.660632
  C       4.525807      3.251060     -0.138766
  C       5.035676      4.327638     -0.865130
  C       4.493100      4.613897     -2.117171
  C       3.461421      3.841996     -2.654274
  C       2.967162      2.764779     -1.921531
  Cl      5.124636      5.965203     -3.025106
  Cl      5.188360      2.882403      1.424805
  H      -1.472900      2.073355      0.334526
  H       0.864213      2.943695      0.230018
  H       0.041575     -1.970769      0.021337
  H       3.385620     -0.767107     -0.163451
  H       5.839952      4.932965     -0.449173
  H       3.052867      4.071453     -3.637954
  H       2.166407      2.148325     -2.331690
24
Coordinates from ORCA-job Triclosan\Triclosan_PBE_def2-TZVP\Triclosan_PBE_def2-TZVP.orcainp E -1991.526118965459
  C      -0.637962      1.384895      0.238775
  C       0.670982      1.873665      0.200385
  C       1.740150      0.992480      0.076837
  C       1.526039     -0.398309      0.000119
  C       0.219009     -0.892739      0.045383
  C      -0.839444      0.006888      0.161313
  Cl     -2.472498     -0.621883      0.214224
  O       2.562618     -1.270156     -0.107552
  O       3.075199      1.384203      0.104052
  C       3.486856      2.466312     -0.644727
  C       4.536960      3.250781     -0.140184
  C       5.046689      4.319338     -0.878422
  C       4.491471      4.601920     -2.125588
  C       3.448812      3.835026     -2.647064
  C       2.954628      2.765620     -1.902439
  Cl      5.122167      5.943540     -3.048003
  Cl      5.215916      2.885797      1.417027
  H      -1.481614      2.066966      0.332527
  H       0.856709      2.946489      0.265117
  H       0.048668     -1.967434     -0.015876
  H       3.391868     -0.750226     -0.150275
  H       5.860259      4.920791     -0.475363
  H       3.030805      4.063126     -3.627009
  H       2.145154      2.151832     -2.299087
24
Coordinates from ORCA-job Triclosan\Triclosan_PBE_def2-TZVP\Triclosan_PBE_def2-TZVP.orcainp E -1991.526213936313
  C      -0.654256      1.376981      0.242567
  C       0.649824      1.880804      0.247144
  C       1.730580      1.014833      0.116463
  C       1.536582     -0.375720     -0.000828
  C       0.233841     -0.885183     -0.003947
  C      -0.835923      0.000339      0.114776
  Cl     -2.462412     -0.647042      0.103523
  O       2.585214     -1.233748     -0.101275
  O       3.058437      1.430952      0.178096
  C       3.479213      2.482598     -0.607040
  C       4.558999      3.251282     -0.141640
  C       5.073981      4.296655     -0.909013
  C       4.495470      4.570324     -2.147565
  C       3.426461      3.816891     -2.632698
  C       2.926268      2.770981     -1.858799
  Cl      5.130513      5.884332     -3.105539
  Cl      5.269890      2.896084      1.403282
  H      -1.508392      2.045226      0.340608
  H       0.825304      2.952115      0.353036
  H       0.074150     -1.958515     -0.103605
  H       3.408468     -0.702888     -0.125264
  H       5.909841      4.886314     -0.535377
  H       2.990953      4.038835     -3.606403
  H       2.096434      2.166474     -2.226333
24
Coordinates from ORCA-job Triclosan\Triclosan_PBE_def2-TZVP\Triclosan_PBE_def2-TZVP.orcainp E -1991.526332774445
  C      -0.695099      1.350617      0.262586
  C       0.592231      1.890289      0.336040
  C       1.702034      1.064814      0.183725
  C       1.557363     -0.321471     -0.013263
  C       0.270599     -0.867184     -0.091364
  C      -0.828053     -0.020442      0.044042
  Cl     -2.432379     -0.711442     -0.066016
  O       2.633136     -1.144897     -0.120028
  O       3.009832      1.533801      0.308162
  C       3.455449      2.521991     -0.541571
  C       4.588952      3.250248     -0.142088
  C       5.126630      4.242549     -0.962438
  C       4.519273      4.502393     -2.190412
  C       3.400442      3.785119     -2.612670
  C       2.875781      2.793057     -1.785454
  Cl      5.180607      5.752104     -3.214179
  Cl      5.340611      2.910658      1.386913
  H      -1.572875      1.984845      0.377006
  H       0.736557      2.956661      0.515505
  H       0.142961     -1.936075     -0.260115
  H       3.441544     -0.591369     -0.097845
  H       6.003623      4.801085     -0.638614
  H       2.943010      3.995141     -3.579001
  H       2.007213      2.216431     -2.104750
24
Coordinates from ORCA-job Triclosan\Triclosan_PBE_def2-TZVP\Triclosan_PBE_def2-TZVP.orcainp E -1991.526411613854
  C      -0.707474      1.340553      0.268802
  C       0.573731      1.891079      0.354339
  C       1.693124      1.079040      0.195856
  C       1.561991     -0.304661     -0.021738
  C       0.280929     -0.862246     -0.110645
  C      -0.827700     -0.029548      0.031660
  Cl     -2.424376     -0.734150     -0.091882
  O       2.644945     -1.118487     -0.138893
  O       2.993497      1.563244      0.337706
  C       3.448954      2.533024     -0.528032
  C       4.595461      3.248411     -0.142363
  C       5.141109      4.226118     -0.974557
  C       4.530057      4.485445     -2.201130
  C       3.397759      3.780221     -2.608425
  C       2.863786      2.803329     -1.769115
  Cl      5.201709      5.717075     -3.239948
  Cl      5.352675      2.911729      1.384724
  H      -1.591470      1.965144      0.389539
  H       0.706593      2.956647      0.548011
  H       0.165169     -1.930545     -0.292107
  H       3.450655     -0.563758     -0.083801
  H       6.028394      4.774559     -0.661200
  H       2.935980      3.987708     -3.573355
  H       1.983941      2.238988     -2.079275
24
Coordinates from ORCA-job Triclosan\Triclosan_PBE_def2-TZVP\Triclosan_PBE_def2-TZVP.orcainp E -1991.526493750700
  C      -0.719025      1.329734      0.278730
  C       0.556859      1.889665      0.360821
  C       1.684309      1.089553      0.194620
  C       1.561163     -0.290860     -0.039300
  C       0.285151     -0.860575     -0.117233
  C      -0.832519     -0.042156      0.038042
  Cl     -2.423093     -0.760923     -0.067541
  O       2.648804     -1.093835     -0.186023
  O       2.979445      1.581399      0.348603
  C       3.445733      2.540263     -0.524445
  C       4.596582      3.249601     -0.139873
  C       5.151128      4.217322     -0.976684
  C       4.546414      4.476275     -2.207035
  C       3.407278      3.778336     -2.609598
  C       2.862783      2.811503     -1.765223
  Cl      5.232224      5.694506     -3.252901
  Cl      5.344123      2.917917      1.393713
  H      -1.606595      1.947850      0.407791
  H       0.678752      2.956629      0.555165
  H       0.182139     -1.930320     -0.299603
  H       3.453067     -0.544739     -0.081359
  H       6.041954      4.760785     -0.663847
  H       2.947071      3.981850     -3.576272
  H       1.975693      2.259140     -2.076377
24
Coordinates from ORCA-job Triclosan\Triclosan_PBE_def2-TZVP\Triclosan_PBE_def2-TZVP.orcainp E -1991.526501686076
  C      -0.731034      1.319779      0.287765
  C       0.539332      1.890426      0.381102
  C       1.674424      1.103213      0.207474
  C       1.565656     -0.275207     -0.045714
  C       0.295042     -0.855735     -0.134691
  C      -0.830146     -0.049764      0.028588
  Cl     -2.413555     -0.782570     -0.089550
  O       2.661113     -1.064680     -0.201200
  O       2.964216      1.606782      0.372192
  C       3.437565      2.551847     -0.511752
  C       4.599770      3.249365     -0.138804
  C       5.163458      4.201815     -0.986480
  C       4.556603      4.457759     -2.216459
  C       3.406430      3.772319     -2.607666
  C       2.852842      2.820142     -1.752268
  Cl      5.255295      5.656585     -3.276519
  Cl      5.349639      2.919728      1.394305
  H      -1.625011      1.927456      0.421376
  H       0.651448      2.955933      0.588728
  H       0.202868     -1.923864     -0.331474
  H       3.459356     -0.509267     -0.083891
  H       6.062879      4.735860     -0.682325
  H       2.944426      3.973545     -3.573907
  H       1.956823      2.277453     -2.054658
24
Coordinates from ORCA-job Triclosan\Triclosan_PBE_def2-TZVP\Triclosan_PBE_def2-TZVP.orcainp E -1991.526504554616
  C      -0.729834      1.320884      0.289583
  C       0.541283      1.890453      0.382164
  C       1.675159      1.102231      0.207100
  C       1.564958     -0.276354     -0.047202
  C       0.293632     -0.855461     -0.135330
  C      -0.830213     -0.048197      0.029808
  Cl     -2.414524     -0.779601     -0.086691
  O       2.659891     -1.065673     -0.204630
  O       2.966220      1.603367      0.369797
  C       3.438780      2.550284     -0.512560
  C       4.598672      3.250901     -0.137960
  C       5.161401      4.204354     -0.985036
  C       4.555649      4.458022     -2.216020
  C       3.407623      3.770348     -2.608901
  C       2.855114      2.817009     -1.753901
  Cl      5.253939      5.657674     -3.275487
  Cl      5.345918      2.923582      1.396941
  H      -1.623200      1.929299      0.423490
  H       0.654426      2.955739      0.590051
  H       0.200789     -1.923374     -0.332814
  H       3.458005     -0.510284     -0.085873
  H       6.058905      4.740824     -0.679620
  H       2.946360      3.970471     -3.575681
  H       1.960488      2.272422     -2.057058
24
Coordinates from ORCA-job Triclosan\Triclosan_PBE_def2-TZVP\Triclosan_PBE_def2-TZVP.orcainp E -1991.526505459067
  C      -0.728917      1.321784      0.290580
  C       0.542716      1.890620      0.383153
  C       1.675714      1.101714      0.206967
  C       1.564608     -0.276891     -0.048122
  C       0.292885     -0.855062     -0.136319
  C      -0.830123     -0.046852      0.029735
  Cl     -2.415029     -0.777098     -0.086949
  O       2.659437     -1.065974     -0.206217
  O       2.967497      1.601369      0.368850
  C       3.439774      2.548900     -0.513033
  C       4.598272      3.251448     -0.137694
  C       5.160059      4.205695     -0.984476
  C       4.554517      4.458099     -2.215842
  C       3.407894      3.768834     -2.609596
  C       2.856426      2.814587     -1.754760
  Cl      5.251924      5.658760     -3.274798
  Cl      5.344445      2.925407      1.397967
  H      -1.621902      1.930633      0.424941
  H       0.656465      2.955644      0.591984
  H       0.199783     -1.922816     -0.334523
  H       3.457204     -0.510653     -0.084382
  H       6.056400      4.743753     -0.678511
  H       2.946693      3.968308     -3.576521
  H       1.962699      2.268710     -2.058262
24
Coordinates from ORCA-job Triclosan\Triclosan_PBE_def2-TZVP\Triclosan_PBE_def2-TZVP.orcainp E -1991.526505587244
  C      -0.728717      1.321996      0.290412
  C       0.543006      1.890721      0.383223
  C       1.675810      1.101629      0.206974
  C       1.564615     -0.276965     -0.048036
  C       0.292884     -0.855023     -0.136535
  C      -0.830027     -0.046564      0.029336
  Cl     -2.415050     -0.776556     -0.087955
  O       2.659623     -1.065880     -0.205854
  O       2.967681      1.601123      0.368918
  C       3.439910      2.548622     -0.513077
  C       4.598390      3.251211     -0.137841
  C       5.159926      4.205660     -0.984583
  C       4.554103      4.458141     -2.215802
  C       3.407580      3.768716     -2.609547
  C       2.856380      2.814286     -1.754723
  Cl      5.251126      5.659210     -3.274600
  Cl      5.344893      2.924979      1.397599
  H      -1.621661      1.930896      0.424843
  H       0.656819      2.955691      0.592313
  H       0.199809     -1.922766     -0.334812
  H       3.457134     -0.510421     -0.082788
  H       6.056257      4.743799     -0.678726
  H       2.946190      3.968191     -3.576380
  H       1.962757      2.268221     -2.058186
